15
Coordinates from ORCA-job run
  C   0.90396792464485      0.11223148070019      0.47604036466212
  C   -0.46964150568199     -0.59221516502392      0.27436794733034
  F   1.66169667464795     -0.83335573204245      1.13844868927788
  H   -0.75873844895281     -1.06947234955123      1.21000858591028
  N   1.60301506487134      0.47540118300274     -0.70493073543161
  H   1.20109191792561      1.28616845910520     -1.15637822179455
  H   1.63429362272881     -0.31542943594222     -1.33728008293108
  C   0.76359319498550      1.29246520967116      1.35249907220254
  N   0.64396600804047      2.22978767942409      2.04890383089884
  N   -0.37185816220888     -1.52351454239700     -0.79602212607376
  H   -1.03515886077161     -2.27859061924339     -0.69072726572328
  H   -0.53418399336683     -1.05690043305023     -1.68002853753443
  N   -1.50490891088633      0.48722335373130      0.02133699664203
  O   -1.50475958628842      0.97549904485486     -1.11011556949437
  O   -2.23337493968767      0.81270186676089      0.95287705205905
