15
Coordinates from ORCA-job run
  C   0.73110502061013      0.32435323101677      0.18800102533203
  C   -0.63243553055799     -0.21173098304729     -0.32013251088757
  F   0.42327739079533      1.30166684294377      1.15135296076739
  H   -0.45305815807898     -0.91457020800531     -1.13428605196866
  N   1.56389900069320     -0.66475374029969      0.70559716704626
  H   2.55378629433845     -0.56612112459562      0.56837235260567
  H   1.21408221650580     -1.60752668454394      0.73660090891942
  C   1.35394507139584      1.05725592816170     -0.93522810399014
  N   1.85014255870101      1.59181786155476     -1.85581935765883
  N   -1.58125798498329      0.77272006179940     -0.69783629153886
  H   -1.60320861257988      1.53803378493681     -0.03770707722113
  H   -1.41088425983393      1.11227080292134     -1.63375895926831
  N   -1.20879045825115     -1.03939058754629      0.80985297388056
  O   -1.95430972903719     -0.47633616213376      1.59699427252937
  O   -0.84629281971733     -2.21668902316265      0.85899669145282
