15
Coordinates from ORCA-job run
  C   0.89180636362118     -0.12850499002283      0.19734349782343
  C   -0.57557351829116     -0.52966786647278     -0.05083119662325
  F   1.61248255451033     -1.15694103047574     -0.46584238501558
  H   -0.77880483773243     -1.47860588909788      0.45756202020959
  N   1.11420044776982      1.14796577250337     -0.32444611974330
  H   2.07067717537460      1.45835884452114     -0.22650911630654
  H   0.78959598078449      1.18964878010610     -1.28356507685902
  C   1.31511783181887     -0.20604351678504      1.60415160666572
  N   1.72709578761656     -0.27201851302420      2.70127360967535
  N   -0.79891129507237     -0.50477289974028     -1.47023405952009
  H   -1.76453328870760     -0.28276777818029     -1.67264609046733
  H   -0.55046282401973     -1.39737788462688     -1.87390304677425
  N   -1.46731273801325      0.47940262388021      0.62699140758394
  O   -1.37389047618880      0.52252324940328      1.84777506071974
  O   -2.21148716347051      1.15980109801181     -0.07012011136840
