15
Coordinates from ORCA-job run
  C   0.85925474020054     -0.07155834868889      0.12241846327340
  C   -0.56894637127693     -0.65528505173392     -0.02984274132571
  F   1.65163477372705     -0.96568444748570     -0.64193614897548
  H   -0.57557207522356     -1.63610632031145      0.44726111709718
  N   0.92819835327492      1.25384044865276     -0.32704224158334
  H   1.85205768221302      1.65284941084937     -0.22949083686501
  H   0.59643032746868      1.35042419603405     -1.27693360478841
  C   1.36473081208076     -0.16210148592428      1.50063841952867
  N   1.80494862856792     -0.22867883554446      2.58702733701939
  N   -1.05841867085014     -0.74545783984396     -1.36806766952418
  H   -0.40147119054227     -1.23492525130989     -1.95960168928055
  H   -1.30139491104735      0.16030109944425     -1.74518505722734
  N   -1.49950000183467      0.20950283378405      0.77190788018346
  O   -1.53515356842927     -0.01052672384535      1.97863961806851
  O   -2.11579852832869      1.08140631592342      0.16920715439940
