15
Coordinates from ORCA-job run
  C   0.71812177860213      0.32703081052457      0.23450180029975
  C   -0.61163209910341     -0.20923550330450     -0.35609179821750
  F   0.35285574600176      1.28948921225437      1.19130220804059
  H   -0.38371882029393     -0.89722052841015     -1.17074657907171
  N   1.52613135733689     -0.66498374455995      0.78822720894755
  H   2.52100652611308     -0.55949823072964      0.69927313162635
  H   1.18408328816199     -1.61133436091786      0.76936460375179
  C   1.39761442732504      1.07637351616784     -0.84422881354300
  N   1.92857180974369      1.62455620983951     -1.73699170503222
  N   -1.54523467633712      0.77577349091301     -0.76839034023042
  H   -1.60551484849567      1.53197677584032     -0.10026324128801
  H   -1.33016840780606      1.12885016614000     -1.69000289995470
  N   -1.24258433469823     -1.06004567274503      0.72654908138912
  O   -2.03032868654984     -0.51473613241629      1.48470554054599
  O   -0.87820306000035     -2.23699600859619      0.77179180273642
