15
Coordinates from ORCA-job run
  C   0.76863181313408      0.41019137752227      0.09752366213002
  C   -0.56392128726010     -0.16134090350223     -0.40885550700340
  F   0.48722247840357      1.31494255404686      1.13341396417758
  H   -0.39631692514304     -0.64349800590559     -1.37206634235910
  N   1.66748752650752     -0.60956283192016      0.47172630989376
  H   2.60325699035068     -0.25104494276823      0.60677670835093
  H   1.34764147546669     -1.07322238005639      1.31318306854636
  C   1.35260226573375      1.20603668933472     -0.99994525322241
  N   1.84334096626343      1.82506066388836     -1.86763547567555
  N   -1.53134456553822      0.86455296559161     -0.51684223329532
  H   -2.38491370803820      0.54969461924147     -0.95583181971742
  H   -1.71563675561142      1.30488952901887      0.37422484275026
  N   -1.01849870711986     -1.31060061786217      0.49053508981410
  O   -1.59438473694695     -2.23739806589725     -0.07243378742778
  O   -0.86516683020192     -1.18770065073214      1.70622677303797
