15
Coordinates from ORCA-job run
  C   0.88549376048665     -0.05895272546542      0.32251504944371
  C   -0.53317844617338     -0.61215484521407      0.05927571639507
  F   1.68259506719293     -1.20553169691490      0.48895167263382
  H   -0.69609998322369     -1.45131584672675      0.73409688738373
  N   1.29826893096487      0.74252568680146     -0.75799414972411
  H   2.18922231852036      1.18755244570092     -0.58145043015109
  H   1.34579686190412      0.17518709215768     -1.59617961198202
  C   0.99986010973123      0.69905940742407      1.58090704946969
  N   1.16438992518267      1.30365084893960      2.57355742307192
  N   -0.65750171569684     -0.98774140551259     -1.30376180522478
  H   -1.36193244724660     -1.70233558597078     -1.42375923913581
  H   -0.91575104118573     -0.17539465521746     -1.85347745680711
  N   -1.55613981693370      0.44188173783486      0.48125569404383
  O   -2.00137458005826      1.17529068447575     -0.39599200047092
  O   -1.84464894346463      0.46927885768764      1.67405520105406
