15
Coordinates from ORCA-job run
  C   0.84444871998944     -0.26595470264519     -0.03781339534482
  C   -0.67495573163930     -0.50439798249849     -0.16466208335969
  F   1.43808698235873     -1.21868607963554     -0.84711102708333
  H   -0.87334203770787     -1.55138970607476      0.06529924310203
  N   1.21033682681448      1.01213593244102     -0.55353172811374
  H   2.21393208206063      1.14027592100846     -0.50444462136116
  H   0.73727287304810      1.74727542336172     -0.04022925716991
  C   1.30172064485474     -0.54132795740095      1.34564587545264
  N   1.65879139331551     -0.71776394779133      2.45122156579209
  N   -1.20367677670899     -0.11368295042728     -1.42063010491840
  H   -0.58312096103772      0.53118133166098     -1.89286435480045
  H   -1.41248267169402     -0.90777612487084     -2.00499169363768
  N   -1.37448507972177      0.26937755870247      0.93873253544749
  O   -1.17715147823578      1.48341391492468      0.97064016352817
  O   -2.10437478569616     -0.36268063075493      1.69373888246674
