15
Coordinates from ORCA-job run
  C   0.91913180296355     -0.14493201894307      0.22331886446923
  C   -0.53747164952888     -0.63883463356417      0.17570068545604
  F   1.71281222789526     -1.26419932851126      0.32424712628953
  H   -0.71979179582922     -1.28133620244252      1.03842425007397
  N   1.28497075384516      0.52910514731562     -0.98339170423168
  H   0.77092578354320      1.39774043335765     -1.06619806451535
  H   2.28078226357573      0.71583854169583     -0.97994025081218
  C   1.13949546425561      0.64243574096506      1.46543053456299
  N   1.31829297662823      1.30210549410910      2.42120942874707
  N   -0.78444116673394     -1.31519751045698     -1.03324631536348
  H   -0.52322550533711     -0.76912988789035     -1.84184685541257
  H   -1.71916671934023     -1.69143499424700     -1.09819477054070
  N   -1.46972545388051      0.55827407928690      0.41336867305285
  O   -2.39780569663321      0.38692623548758      1.19818339450646
  O   -1.27378328542364      1.57263890383760     -0.25806499628218
