15
Coordinates from ORCA-job run
  C   0.72522368275981      0.32427908310095      0.21222685417220
  C   -0.63234216640609     -0.19252265481409     -0.33090580293757
  F   0.40953902199490      1.14845855326228      1.30787403463170
  H   -0.45151178192189     -0.77277422441220     -1.23616334656504
  N   1.60933075789532     -0.69070043157728      0.56632855607494
  H   2.59090843278677     -0.53613605036891      0.42252441065219
  H   1.29330398305962     -1.64275740713806      0.49238793589548
  C   1.28577799923940      1.22808127026837     -0.81525234220800
  N   1.72078625440843      1.90549937361472     -1.67039812391452
  N   -1.62705139594323      0.79476359743015     -0.54956773242760
  H   -1.49680116298876      1.26295666895817     -1.43501827048326
  H   -1.65747057107354      1.46338634123114      0.20795669686877
  N   -1.14518684170108     -1.18595735826327      0.69104283060062
  O   -1.88877250022930     -0.76390881886572      1.56358071581423
  O   -0.73773371188035     -2.34366794242625      0.57338358382588
