15
Coordinates from ORCA-job run
  C   0.80149665007715      0.26514264365801      0.08709641330984
  C   -0.57028126980909     -0.22429224484344     -0.41063534470611
  F   0.50256055282736      1.07428855844042      1.21483087665034
  H   -0.42942357875139     -0.99969442485480     -1.16491815104284
  N   1.70151087809314     -0.77366000668949      0.35779613112300
  H   2.59185717920654     -0.42779176457207      0.68876800199246
  H   1.31372800892739     -1.47526564055648      0.97375133302872
  C   1.39693411717847      1.17146796914628     -0.91274355585409
  N   1.93227486889265      1.87931495559288     -1.68055535734341
  N   -1.33378661452967      0.85407267100086     -0.89290269366588
  H   -2.20684226115867      0.55009661501254     -1.29992648855182
  H   -1.52124617170948      1.52533043399149     -0.15941868939694
  N   -1.23362931392733     -0.95870207223483      0.78291311504076
  O   -2.23002987739400     -0.44687852504385      1.27415993617092
  O   -0.71412316792309     -2.01442916804754      1.14078447324505
