15
Coordinates from ORCA-job run
  C   0.74527186821011      0.28973854009924      0.28392858514521
  C   -0.45965622346629     -0.18927062060804     -0.54503117260689
  F   0.16900408086828      0.90889979206554      1.42455915735511
  H   -0.11298357532360     -0.83637183558374     -1.35200966404044
  N   1.65382295974563     -0.73104889740790      0.59206872664062
  H   1.20978884775863     -1.53411609680173      1.01627808992547
  H   2.43211488176548     -0.39317729804805      1.14155379717004
  C   1.45191211587633      1.36169164362810     -0.44210545588034
  N   2.07018928213268      2.20048764236919     -0.98193576929476
  N   -1.19754564159827      0.90865528182196     -1.02309301798770
  H   -1.57748219565695      1.45285682055993     -0.25943629957623
  H   -1.94741646106541      0.62456119598991     -1.63737303662055
  N   -1.28297833841749     -1.12545012041051      0.37696051512999
  O   -0.76162972844418     -2.19535406394732      0.68686088829863
  O   -2.39341187238495     -0.74310198372660      0.71877465634182
