15
Coordinates from ORCA-job run
  C   0.88152325745177      0.12625257415784      0.40906328895149
  C   -0.55085760321539     -0.42105743258130      0.27342655444020
  F   1.53493082090154     -0.94579303044261      1.05507042838298
  H   -0.96943529052492     -0.60989547336110      1.27140466355380
  N   1.52089877676783      0.40335598531576     -0.80995608508080
  H   1.11351796386453     -0.12365244850277     -1.57102723392904
  H   1.60132258715760      1.38550149910596     -1.01824940128231
  C   0.95142055810003      1.26270482557778      1.34028598629193
  N   0.99618373035580      2.13962878070597      2.11899171396060
  N   -0.51639698066773     -1.54909240540339     -0.62076106822989
  H   0.04981755669630     -2.27877870220016     -0.20553930942009
  H   -1.45606895093035     -1.89783827291872     -0.76438122400485
  N   -1.47758431704016      0.59372467860739     -0.34723032536542
  O   -2.57939710512150      0.16032608823679     -0.66957923755708
  O   -1.09787500379536      1.75461333370255     -0.46251875071150
