15
Coordinates from ORCA-job run
  C   0.75729975408946     -0.01523102165281      0.42929231103141
  C   -0.58601111966615     -0.58290496519874     -0.06451662090154
  F   0.98930806010382     -0.48539985081792      1.70037778240532
  H   -0.47069223502953     -1.66581248317162     -0.09236893214685
  N   1.79568607308506     -0.52808627476313     -0.41759569706514
  H   2.69733898408272     -0.20350475515654     -0.08503279106041
  H   1.66981634187793     -0.19631861318190     -1.36612160039346
  C   0.73326227728906      1.46793250663856      0.49434973185956
  N   0.78826479005790      2.64037011110947      0.43657980759731
  N   -1.06625999510912     -0.08173880158956     -1.30327564145659
  H   -0.99338687754894      0.92027574441306     -1.40622255648518
  H   -0.73082496705242     -0.58901099309757     -2.10575176594561
  N   -1.61355390882709     -0.30195017238212      1.00233159051087
  O   -1.95679404578675     -1.23636835988138      1.71784366548711
  O   -2.01645313156593      0.85674792873219      1.06011071656320
