15
Coordinates from ORCA-job run
  C   0.75676322031905      0.36998146116033      0.22949332145079
  C   -0.53651721865997     -0.15723970234156     -0.42003877800211
  F   0.32198946439471      1.25058823533238      1.24289422209766
  H   -0.28561854103744     -0.81276006032907     -1.25537819564644
  N   1.58451808879420     -0.62783295516430      0.73882095619473
  H   1.24926601589763     -1.57555652729766      0.72282741993298
  H   2.57593835675846     -0.50461645109995      0.64100765156354
  C   1.46332470299450      1.20929942891452     -0.75887184835007
  N   2.08717465317551      1.82645577451060     -1.53873494228139
  N   -1.35226073659315      0.91716890033993     -0.81659425812903
  H   -2.17483654516947      0.61082013005230     -1.31650118892378
  H   -1.61946715570429      1.48301337943424     -0.02234821057834
  N   -1.19981328428932     -1.09855698351798      0.60840998823484
  O   -0.74944705099642     -2.24334297151180      0.67173928746846
  O   -2.12301396988399     -0.64842165848200      1.27327457496814
