15
Coordinates from ORCA-job run
  C   0.66336065381389      0.39926534346646      0.27990697040845
  C   -0.55439470104731     -0.27939668680230     -0.39896950704765
  F   0.12964944416316      1.37175622899313      1.14305744689708
  H   -0.19295039208450     -0.98364571222982     -1.14886091512178
  N   1.49302150916516     -0.49072729534949      0.95829860650255
  H   2.47887440145169     -0.29984442862151      0.96813838455268
  H   1.23186812585427     -1.46235429179234      0.97091714193865
  C   1.37844541462153      1.15283251949566     -0.77318293954205
  N   1.94411785057265      1.70329822303495     -1.64282357615591
  N   -1.52199754449429      0.59836130771145     -0.95108033882485
  H   -1.24824874751131      0.92310569327342     -1.86752449673940
  H   -1.70973271862747      1.37858242060578     -0.33629055212015
  N   -1.21477193294918     -1.12839795939096      0.66776451370208
  O   -2.11439475314012     -0.61741412638861      1.31734667354030
  O   -0.76084660978817     -2.26542123600583      0.81330258801002
