15
Coordinates from ORCA-job run
  C   0.71958076035612      0.28825231745293      0.18167849096221
  C   -0.58625038709660     -0.31289493460392     -0.40111203525688
  F   0.30962734375988      1.08286254007683      1.27647051718323
  H   -0.32028573122370     -1.06743704107140     -1.14200785115466
  N   1.68130958376197     -0.67809466871285      0.50507031723123
  H   1.30622161237166     -1.42564317157388      1.07409548198579
  H   2.51071112663884     -0.27261254348216      0.91708691126805
  C   1.27353322436316      1.22787135345341     -0.81283656289628
  N   1.69507834112825      1.96334870636697     -1.62487704657906
  N   -1.52474366703603      0.61178705232401     -0.92575351311191
  H   -1.66766131778764      1.39956196736127     -0.30830632496666
  H   -1.26265121699494      0.92337817190763     -1.85004571739420
  N   -1.23534635030413     -1.06363458703456      0.74917040136570
  O   -0.71849581961718     -2.14154774829741      1.04709085138552
  O   -2.17962750231966     -0.53519741416685      1.31427607997794
