15
Coordinates from ORCA-job run
  C   0.76276652286161      0.13438076374325      0.30335187319491
  C   -0.55227363085041     -0.59115186645444     -0.05539434886037
  F   1.06140906112252     -0.16859411898205      1.63614663451542
  H   -0.34646937453923     -1.66353555029281     -0.06221432413101
  N   1.76049329565908     -0.30273262947271     -0.60068361170227
  H   2.61421216282122      0.23372490194823     -0.51117889985054
  H   1.96042759569772     -1.28638532266070     -0.46012251362343
  C   0.62397228375836      1.59770098301594      0.20053454844000
  N   0.54426506158185      2.76340501774225      0.08778467312676
  N   -1.18295758980282     -0.18637220043092     -1.27020682612582
  H   -0.57138341602656     -0.37504629973536     -2.05372997985601
  H   -1.40263346254157      0.80288896348488     -1.24335913541237
  N   -1.52180291711779     -0.37883970646615      1.06888599671036
  O   -2.02279931211827      0.74090155176935      1.13330633089186
  O   -1.72722628050573     -1.31934448720876      1.82687958268250
