13

C	-0.291593	0.054545	-1.471507
C	0.0	0.0	0.0
Br	-2.277099	0.467363	-1.80892
H	1.097204	0.0	0.0
H	-0.244651	-0.950379	-1.897679
H	-0.323117	0.938931	0.467631
N	0.516839	1.048949	-2.085997
H	1.433954	1.021283	-1.627625
H	0.63362	0.867504	-3.073332
N	-0.512111	-1.209924	0.628763
H	-1.398742	-1.024895	1.080605
H	0.154349	-1.493725	1.338167
H	2.940566	0.0	0.0
