13

C	-0.531359	0.036988	-1.425543
C	0.0	0.0	0.0
Br	-0.346532	-1.762399	-2.238229
H	1.093925	0.0	0.0
H	0.134588	0.64055	-2.051386
H	-0.394469	-0.882045	0.510236
N	-1.915236	0.425941	-1.454977
H	-2.168495	0.767293	-2.373898
H	-1.977532	1.185226	-0.780303
N	-0.430156	1.245121	0.685731
H	0.4185	1.775362	0.861849
H	-0.813241	1.009889	1.591989
H	2.997677	0.0	0.0
