13

C	-0.562741	0.017973	-1.41301
C	0.0	0.0	0.0
Br	-0.284666	-1.732072	-2.24999
H	1.097356	0.0	0.0
H	0.014334	0.717226	-2.020805
H	-0.379943	-0.874644	0.540678
N	-1.975564	0.353526	-1.532517
H	-2.501029	-0.363744	-1.039563
H	-2.060285	1.204579	-0.978518
N	-0.417602	1.270028	0.641845
H	-0.916655	1.075767	1.499619
H	0.439816	1.747389	0.904939
H	2.991557	0.0	0.0
