12
Coordinates from ORCA-job run
  C   -0.79560993653479     -0.48906741896848      0.42700815954058
  C   0.42159485284352     -0.09067475841511      0.05588542148463
  H   -0.94720230218162     -1.31207509559370      1.11216851545408
  N   -2.01111926268814      0.15304836582007     -0.04755996275121
  O   -3.05453533154577     -0.30186291224086      0.42146144204492
  O   -1.90654176372688      1.07260468366147     -0.85590198162734
  N   1.62406444855306     -0.77560623686880      0.57649856577550
  O   1.43872728728390     -1.71878465567663      1.33175016486174
  O   2.69813131288332     -0.32270699518017      0.19581717439248
  N   0.74929345532047      1.00220439613857     -0.85431621937848
  O   0.88146986157625      0.68646043786163     -2.02914044687524
  O   0.90172737821669      2.09846018946203     -0.33267083292165
