12
Coordinates from ORCA-job run
  C   -0.91112004789743      0.34413419460165      0.32589880109350
  C   0.34943050161666      0.24015220580923     -0.09632955853973
  H   -1.36188221072395      1.29879910801330      0.56083499829235
  N   -1.77438260478303     -0.81097830851164      0.51427847036749
  O   -1.33144442690350     -1.92149809268983      0.23057851871528
  O   -2.89592978991895     -0.55380463646640      0.95204308522440
  N   1.06333972511733     -0.98588650814537     -0.43896997300106
  O   1.66697157168265     -1.52203212267423      0.48043482639036
  O   1.01562483491320     -1.31023085688436     -1.61791040205871
  N   1.18491003027560      1.44866950491689     -0.26232322107283
  O   0.65666218759687      2.52319291865402     -0.01596424867499
  O   2.33682022902455      1.24948259337673     -0.63257129673607
