12
Coordinates from ORCA-job run
  C   -0.78155438887396     -0.48616775192146      0.45491032787828
  C   0.42336040543341     -0.08843937803027      0.04518750229991
  H   -0.91185554573477     -1.30563955366888      1.14861650088684
  N   -2.01198294979797      0.14704306303869      0.00771656297088
  O   -1.93132926958342      1.07732554539382     -0.79101880462578
  O   -3.04229714988289     -0.32555558156186      0.48814942286897
  N   1.64182498021253     -0.76809196967304      0.53507382078284
  O   2.70264594971539     -0.32896875133342      0.10439240460408
  O   1.48111966935076     -1.69490059645243      1.31575402731495
  N   0.72300614050746      0.99902542693942     -0.88115990021892
  O   0.80615895751564      0.68019081267005     -2.05955476191309
  O   0.90290320113783      2.09517873459937     -0.36806710284896
