12
Coordinates from ORCA-job run
  C   -0.77760627080504     -0.48099425547475      0.46720457018054
  C   0.42394191718108     -0.08461872686310      0.04649999161675
  H   -0.90154574683587     -1.28718246211626      1.17743273627170
  N   -2.01297286022093      0.13526621165615      0.00987286017837
  O   -1.93941651652180      1.05607450690665     -0.80040789143404
  O   -3.03975005795922     -0.34137769376669      0.49388176816076
  N   1.64751018889516     -0.74718697655853      0.54635815752283
  O   2.70458071266449     -0.31155029127857      0.10305434548399
  O   1.49434860601886     -1.65841196670588      1.34668674673492
  N   0.71431237724930      0.98528032188786     -0.90287697804154
  O   0.89389662548141      2.09179775714736     -0.41235208162753
  O   0.79170102485255      0.64390357516577     -2.07535422504676
