12
Coordinates from ORCA-job run
  C   -0.77565482413148     -0.62978132727673      0.16700538762588
  C   0.44367165251908     -0.11308866592675      0.06115116464899
  H   -0.95263595282149     -1.64805904261833      0.49203599505444
  N   -1.98798742999320      0.13144972666061     -0.14854227731164
  O   -2.25974342506452      0.26008049177940     -1.33696577231615
  O   -2.62893676549255      0.51407736660323      0.82050948759869
  N   1.63961593318812     -0.86219851765685      0.44945253185529
  O   2.37851381786539     -0.27387992652871      1.23076737975818
  O   1.72363081700197     -2.02104618518633      0.05545188048170
  N   0.73497577180100      1.22564656343708     -0.45452487167612
  O   -0.09613535173379      2.10066745008365     -0.24220840536683
  O   1.77968575686146      1.31713206662974     -1.09313250035244
