12
Coordinates from ORCA-job run
  C   -0.76988276426367     -0.53005203985179      0.42533170734168
  C   0.42533044034415     -0.07546158331997      0.04769122053654
  H   -0.87977777604870     -1.38178545387015      1.08275274286746
  N   -2.01610240743210      0.07795375883489     -0.01287242621147
  O   -3.03517830323395     -0.45397468485099      0.42795191760293
  O   -1.95821461761165      1.04640274449121     -0.76697860749371
  N   1.66048193019852     -0.73311833776218      0.52518027786330
  O   1.52266917725753     -1.69724582448336      1.26394326979745
  O   2.71062670212495     -0.23976010230481      0.12824952828051
  N   0.69817161671269      1.05860066207652     -0.82982937519639
  O   0.83688740644171      2.13784779683400     -0.27019339350993
  O   0.80398859551051      0.79159306420664     -2.01922686187836
