12
Coordinates from ORCA-job run
  C   -0.94753616703728      0.30751509880970      0.24958214850943
  C   0.36383828652649      0.23685552513593      0.01914057121125
  H   -1.41876037702043      1.20807795699012      0.61927472566694
  N   -1.84603118226358     -0.81380083061314      0.02585014001577
  O   -1.37293447341793     -1.86132134573695     -0.40868672115076
  O   -3.02595723685565     -0.59550311775319      0.30127037503049
  N   1.23085910186675      1.40857913578567      0.26700506345196
  O   2.42376652128661      1.24318010878546      0.03607805441231
  O   0.68474896257470      2.42317259665703      0.67532689024315
  N   1.10940406347663     -0.91627794577530     -0.47592140699540
  O   1.55487978923218     -1.66636863022826      0.38191678343070
  O   1.24372271163151     -0.97410855205706     -1.69083662382584
