12
Coordinates from ORCA-job run
  C   -0.74433905496156     -0.67783980939280      0.20184718525535
  C   0.42528855314467     -0.05054237408962      0.07445649945857
  H   -0.82157875517448     -1.67070007532822      0.62374814270396
  N   -2.00452050766146     -0.08244666378317     -0.21288267406981
  O   -2.99613847967183     -0.78931032578196     -0.03152990377879
  O   -1.98381761206926      1.04632436117471     -0.69809398482856
  N   1.67646508866030     -0.70460726484893      0.51413739318802
  O   2.70059798939078     -0.04891693930919      0.35643683579163
  O   1.57562522923978     -1.82657289618239      0.98882956179119
  N   0.65335257393123      1.28191143008473     -0.47564621488627
  O   0.63600820519429      2.19789358287576      0.33548927156560
  O   0.88305676997753      1.32480697458109     -1.67679211219091
