12
Coordinates from ORCA-job run
  C   -0.95801173469576      0.31114082592998      0.19909390957884
  C   0.36248708676601      0.23900392334491      0.02920193237748
  H   -1.44812298809984      1.21842062626492      0.52520581570958
  N   -1.84307693333545     -0.81914662073783     -0.03370613152532
  O   -3.03452944614674     -0.59733851284027      0.18321427182309
  O   -1.34908870629255     -1.87708327842411     -0.41660426939081
  N   1.13054049563113     -0.92427285691624     -0.40362634935706
  O   1.54292750381195     -1.64814604561356      0.49259007664843
  O   1.31401316639650     -1.01608387522159     -1.60991595933063
  N   1.21519406285367      1.41964651853822      0.28378385683925
  O   2.41672360956511      1.25422023894128      0.10310284753175
  O   0.64994388354596      2.44063905673430      0.64765999909541
