12
Coordinates from ORCA-job run
  C   -0.73829223342621     -0.64354717260176      0.30862779288436
  C   0.42859228950750     -0.05134405075752      0.05285828553420
  H   -0.80262610966346     -1.58739359563013      0.83277305904495
  N   -2.01414234941410     -0.06707295151572     -0.08490982229309
  O   -2.00722379618588      0.98790767509781     -0.71486374720779
  O   -3.00343113640236     -0.71220111970567      0.26277880140011
  N   1.69646427521956     -0.67945901686660      0.48214232818324
  O   1.61218932786300     -1.75097929138675      1.06448729561291
  O   2.71608310585310     -0.05586422949729      0.20802818116418
  N   0.63821738002902      1.21634478453908     -0.63932771105920
  O   0.66012156052605      2.21067676951981      0.07355595605619
  O   0.81604768609379      1.13393219880475     -1.84715041932006
