12
Coordinates from ORCA-job run
  C   -0.95596313695452      0.35913315844267     -0.10615093409551
  C   0.36157756191783      0.23484124029375      0.05595742369172
  H   -1.44557928832514      1.32333587447030     -0.12441546171213
  N   -1.83889299756414     -0.78490062518894     -0.26855489431297
  O   -3.03063736219740     -0.50530097464121     -0.40001988422021
  O   -1.34267022065176     -1.90905614648821     -0.26200930446466
  N   1.12954552521911     -1.00552577203046      0.09862259574056
  O   1.56957954790298     -1.39076045771990     -0.97619574849312
  O   1.28602024934057     -1.49149126527493      1.21066599766627
  N   1.21134244347013      1.43411321667084      0.21834218061922
  O   2.40980831583448      1.21847995637613      0.36257866528927
  O   0.64686936200786      2.51813179508996      0.19417936429158
