12
Coordinates from ORCA-job run
  C   -0.95759413109556      0.30650847791339      0.20986085299362
  C   0.36102113419699      0.24255146991018      0.02188907550714
  H   -1.45239394879612      1.21739083635090      0.51815317221437
  N   -1.83505263820372     -0.83418734262244      0.00081534584946
  O   -3.03637173413848     -0.59107454178144      0.11936647672879
  O   -1.32594189804629     -1.92383461048960     -0.25044466240880
  N   1.13452338845805     -0.92261221521137     -0.39796123784757
  O   1.24105679943313     -1.08587570344261     -1.60560731319654
  O   1.62056285237530     -1.58116207110100      0.51177281170885
  N   1.20500124399423      1.43727917306687      0.23205730129806
  O   0.64854586868832      2.43750213673525      0.66213410953025
  O   2.39664306313416      1.29651439067187     -0.02103593237764
