12
Coordinates from ORCA-job run
  C   -0.94281096562300      0.34800999981668      0.21384578784234
  C   0.37366575925026      0.21810452596059      0.04779977561087
  H   -1.39245165683845      1.26968574861648      0.55746936301963
  N   -1.87853413717293     -0.72654272656726     -0.07733337905294
  O   -1.42553512646195     -1.83929106783596     -0.33500404738675
  O   -3.06600863091744     -0.40482964420900     -0.03477005746488
  N   1.08734937404995     -0.96734805605398     -0.41630369866552
  O   1.19423892514133     -1.08603416628077     -1.62942511009629
  O   1.53751401499220     -1.68444924608522      0.46728432727154
  N   1.27949839721193      1.35011387043659      0.33505639762759
  O   0.77170667909868      2.35827770383058      0.80439572300430
  O   2.46136736726943      1.16430305837127      0.06598491829010
