12
Coordinates from ORCA-job run
  C   -0.96096654264697      0.34884480773917      0.09860092188132
  C   0.35476821605604      0.23570486393765     -0.08558344641205
  H   -1.46763108778958      1.30345841687834      0.05726221961216
  N   -1.81635900484563     -0.79407066299160      0.37551472448456
  O   -3.00442805130341     -0.52201667236439      0.54990604410038
  O   -1.30362054886446     -1.91012585669466      0.41259819882149
  N   1.14622064028239     -0.99014695659526     -0.05017427118454
  O   1.60334622826876     -1.29319297756079      1.04362743816265
  O   1.30142990319070     -1.54798759668850     -1.12812170273438
  N   1.17721601674356      1.43382206599521     -0.35810701039465
  O   2.37846129102933      1.23100216086379     -0.49793578110641
  O   0.59056293987926      2.50470840748104     -0.41658733523052
