12
Coordinates from ORCA-job run
  C   -0.76517951056549     -0.53164112060367      0.43172482935531
  C   0.42531132819728     -0.08350133513998      0.03224984717147
  H   -0.86978977007485     -1.40122186854472      1.06625364268107
  N   -2.01414226399306      0.10805297675508      0.04994849332047
  O   -3.02755614661260     -0.41714169945529      0.51139600387142
  O   -1.96386189457756      1.09391529030097     -0.68181359657146
  N   0.68991341382691      1.07266349177368     -0.81847107074638
  O   0.85851741137597      2.13294376648014     -0.23150939355919
  O   0.76026368947643      0.83971347984404     -2.01768806258754
  N   1.66378860750056     -0.77340298465818      0.45295661090114
  O   2.70939982842863     -0.28338521269813      0.04049144359836
  O   1.53233530701778     -1.75799478405395      1.16546125256534
