12
Coordinates from ORCA-job run
  C   -0.94108857897671      0.27504136158129      0.30734616265066
  C   0.35461799255948      0.25274384704230     -0.00562008369926
  H   -1.43391246412878      1.17145487021935      0.65860724004384
  N   -1.79944833198899     -0.89125787292093      0.17273231401769
  O   -1.27463467427832     -1.97595474148542     -0.06746893941779
  O   -3.00142166090000     -0.66865603901243      0.31763779409004
  N   1.11919825954897     -0.89050317349950     -0.49464198039419
  O   1.09389791368218     -1.07133848450216     -1.70469227447731
  O   1.73638143025546     -1.51055998306572      0.36085355902011
  N   1.17758157927699      1.47358739931682      0.12368319713929
  O   0.63451833304033      2.45674908554953      0.60635827965211
  O   2.33331020190938      1.37769373077688     -0.27479526862520
