12
Coordinates from ORCA-job run
  C   -0.77329772854662     -0.65581185913937      0.16129763210971
  C   0.42460769966840     -0.08172348607635      0.04620007546097
  H   -0.89033765991396     -1.68558061705213      0.47050267021249
  N   -2.01325520901949      0.05084413074442     -0.11758850085651
  O   -3.03592392625754     -0.61771213333358      0.03408647843056
  O   -1.94743905320147      1.22527642203352     -0.47294353357449
  N   0.70610488401340      1.29185960569350     -0.35940879639323
  O   0.77702227263943      2.10695587845290      0.55037416167561
  O   0.88519857569142      1.46167310703382     -1.55789283870076
  N   1.65329452638405     -0.84865348660142      0.34341269426862
  O   1.50778712395712     -2.01168840465216      0.69057213897523
  O   2.70623849458527     -0.23443915710317      0.21038781839178
