12
Coordinates from ORCA-job run
  C   -0.76230960634511     -0.62915294069768      0.27838068857836
  C   0.42643894071177     -0.07423205038668      0.04051974752135
  H   -0.86071021991023     -1.60830484623998      0.72707793366816
  N   -2.01678941682467      0.03198018710740     -0.04432038139497
  O   -1.97206380451781      1.14837561682406     -0.55573027915243
  O   -3.02843444721982     -0.61151546943590      0.23519890409181
  N   1.67071906078867     -0.79303196580597      0.38907678981524
  O   2.71366736262510     -0.20096960806244      0.13348224382576
  O   1.54628820720781     -1.89913669281492      0.89433863070531
  N   0.68307143770781      1.23251609562863     -0.55698430944461
  O   0.81388231255451      1.23989955532145     -1.77355814937707
  O   0.78524017322198      2.16257211856203      0.23151818116309
