12
Coordinates from ORCA-job run
  C   -0.90025266960044      0.17790230797347      0.46043057540794
  C   0.36024541822127      0.24191148582565      0.03058079051944
  H   -1.31949292196804      0.91886954563139      1.12746582176736
  N   -1.80999210002074     -0.88787029245976      0.07113358873984
  O   -1.39458115225202     -1.76008241589804     -0.68821917927063
  O   -2.93908831426074     -0.80790002174204      0.55540338736877
  N   1.03198452182220     -0.69388267790795     -0.86569909901560
  O   0.96891841876658     -0.42091784225007     -2.05686650006233
  O   1.62122063438888     -1.61710923299155     -0.32009761074032
  N   1.24180721584702      1.34846250153665      0.45990802957832
  O   0.75675747208553      2.18056995717106      1.21272348445697
  O   2.38347347697048      1.32004668511121      0.01323671125024
