12
Coordinates from ORCA-job run
  C   -0.76814377352724     -0.51929088061088      0.44175144879859
  C   0.42533123828753     -0.07893310582588      0.04238511519905
  H   -0.87603249861726     -1.35909757305633      1.11464720788956
  N   -2.01500021291345      0.09467417732826      0.01376904028771
  O   -1.96083113460481      1.03395574321148     -0.77656016288970
  O   -3.03093653758868     -0.40162088557654      0.50098433577499
  N   1.66205990686282     -0.73806745537106      0.51399890783324
  O   1.52663216865264     -1.69099411947443      1.26757176301319
  O   2.71043831079942     -0.25755744692208      0.09735811372248
  N   0.69482279941553      1.03891095727279     -0.85666597410638
  O   0.83818474684023      2.12810475664817     -0.31782731986727
  O   0.79447498639327      0.74991583237648     -2.04141247565546
