12
Coordinates from ORCA-job run
  C   -0.93684234124378      0.25626262004262      0.33381334840733
  C   0.36197054804889      0.23836681175235      0.03292363896951
  H   -1.39735785303548      1.08980729041185      0.84648619048302
  N   -1.83391052359299     -0.84032055850982      0.00590349252574
  O   -2.99537684172625     -0.69097935937329      0.38603914549021
  O   -1.37773636284038     -1.80327834235092     -0.60598987152134
  N   1.09187726142466     -0.82439626053381     -0.65138234243424
  O   1.58294393509342     -1.67967320405898      0.07290906846931
  O   1.16990287823901     -0.71147543334286     -1.86720520926530
  N   1.22964797581174      1.37936940663240      0.39573016449262
  O   0.69576335754580      2.31876763357198      0.96738540454177
  O   2.41011796627537      1.26754939575847      0.08338696984137
