12
Coordinates from ORCA-job run
  C   -0.73493941008377     -0.67863536515006      0.23210902641381
  C   0.42735726813614     -0.04737952203266      0.06362220896047
  H   -0.79493952731617     -1.66748757285652      0.66604744450221
  N   -2.00931792005654     -0.09430662212958     -0.15446828307147
  O   -2.99125321552285     -0.80622817970532      0.05670858966786
  O   -2.00812289416719      1.03098847384824     -0.64805518521637
  N   1.69401878702989     -0.69110501897004      0.47284077554471
  O   2.70990381046585     -0.03251802238203      0.27819547244400
  O   1.61278975981460     -1.80837202371701      0.96211303543217
  N   0.63289750598041      1.27984873008805     -0.50761797813018
  O   0.82623825507352      1.31081730363893     -1.71543024761955
  O   0.63536758064612      2.20437781936800      0.29393514107233
