12
Coordinates from ORCA-job run
  C   -0.96802928062512      0.33557707365469      0.06787310258985
  C   0.35377098208285      0.24028523714419     -0.07877417960265
  H   -1.48902114517326      1.28018741256743     -0.00964834241824
  N   -1.81309417695396     -0.81578537143330      0.34213169087066
  O   -3.01297006161886     -0.56319789829811      0.45262216361269
  O   -1.28094305762258     -1.91906363338900      0.43941774448565
  N   1.16259953558258     -0.97193302848102      0.00347837055153
  O   1.34452653070561     -1.55778816761922     -1.05522073696547
  O   1.60492675171234     -1.23709534193728      1.11309137043124
  N   1.16423140361695      1.44532696509355     -0.35693495677640
  O   0.56362418916913      2.50633676410388     -0.44519157779742
  O   2.37037832912434      1.25714998859419     -0.47284464898145
