12
Coordinates from ORCA-job run
  C   -0.75245321824676     -0.65272693246008      0.24857039506567
  C   0.42692832444084     -0.06179222632012      0.05482146120011
  H   -0.83754000048902     -1.63727378828484      0.68808809521800
  N   -2.01398884591189     -0.02669587399623     -0.11378218671913
  O   -3.01508522842634     -0.70268359862394      0.12412583162795
  O   -1.98510418117761      1.09511044428248     -0.61442509375835
  N   1.67901912184143     -0.74604111742709      0.44260447182302
  O   2.71251593971029     -0.12318274193255      0.22453534408244
  O   1.56970720006542     -1.85763370684918      0.93926117097329
  N   0.66548317675289      1.25556564243506     -0.52655478026650
  O   0.83653369149017      1.27419928567530     -1.73804811611161
  O   0.71498401995058      2.18315461350119      0.26980340686511
