12
Coordinates from ORCA-job run
  C   -0.75989371644419     -0.62893673725919      0.28562175563385
  C   0.42605242486975     -0.06364865771920      0.05814436286279
  H   -0.85571361636789     -1.58637688261513      0.77944644285805
  N   -2.01447458248947     -0.00941102601796     -0.11074493178085
  O   -1.97298886374218      1.08287581511601     -0.67207972999186
  O   -3.02303353679502     -0.66001550454282      0.16355903206672
  N   1.67057720151439     -0.74015414534907      0.48212997656688
  O   1.54898012236779     -1.82040881423029      1.04119780579100
  O   2.71105455690285     -0.14329513797589      0.22750684143494
  N   0.67937148199905      1.21630081766127     -0.59592588809572
  O   0.74145707717463      2.18579698417361      0.14802353470299
  O   0.84761145101028      1.16627328875866     -1.80687920204878
