12
Coordinates from ORCA-job run
  C   -0.95193808559970      0.32969260539914      0.19858943311805
  C   0.36952092442008      0.22208947635750      0.05713248173377
  H   -1.41888785330039      1.22936711464255      0.57579789004615
  N   -1.86877505065493     -0.74639852303055     -0.14252624467313
  O   -1.39915769243836     -1.79781104799754     -0.57137261479053
  O   -3.05927698714213     -0.48944793717984      0.03755054087133
  N   1.10975605556726     -0.93377105536630     -0.43913514253375
  O   1.47870079852902     -1.72985630663691      0.41373384451811
  O   1.31726288372689     -0.94994228574105     -1.64492014001658
  N   1.25462945702981      1.35001249946289      0.41863556073828
  O   0.71518745129301      2.36030586015397      0.84596939042696
  O   2.45397809856944      1.15675959993615      0.25154500056135
