12
Coordinates from ORCA-job run
  C   -0.70804650229988     -0.58742395237874      0.45562140191405
  C   0.43162407872935     -0.04722684129565      0.02310330036024
  H   -0.72467200972833     -1.45532645060056      1.10078494805150
  N   -2.01424813416161     -0.05699741260652      0.09913771834100
  O   -2.96973816870301     -0.66450972676618      0.58256283500187
  O   -2.06285347466613      0.92696930733419     -0.63531756302711
  N   1.73228056510870     -0.62920010468372      0.41780474848538
  O   2.72350541967201     -0.06304356315448     -0.03007925629266
  O   1.70001914561901     -1.61003701182908      1.14668718422736
  N   0.57934889750051      1.11680776265278     -0.84491055648605
  O   0.67885002779983      2.19325606480834     -0.27168930894743
  O   0.63393015512954      0.87773192851960     -2.04370545162816
