12
Coordinates from ORCA-job run
  C   -0.78889187211079     -0.49330900602623      0.45197228268164
  C   0.41890892294250     -0.06879662173437      0.09015685393329
  H   -0.94013396632609     -1.27154045760031      1.18939755634348
  N   -2.01315204369642      0.07728549458767     -0.09202566649388
  O   -1.95585862732065      1.19501692050575     -0.59719585926777
  O   -3.00111521896078     -0.65104262747411     -0.01717110057625
  N   1.63069738730394     -0.67909943980441      0.63966547624800
  O   2.37662334006125     -1.18008901892947     -0.19604251031154
  O   1.78165196394865     -0.62535628985736      1.85521490604464
  N   0.74014997517108      0.97749552794705     -0.88059641231717
  O   0.45087950757384      0.76626950412089     -2.05004519560119
  O   1.30024063141347      1.95416601426488     -0.39433033068326
