12
Coordinates from ORCA-job run
  C   -0.96190577323642      0.35939834341519      0.00948984584820
  C   0.36555813258946      0.23460956349940      0.01667884280232
  H   -1.44916558292294      1.32371309444322      0.05846967995816
  N   -1.85802286437065     -0.78359212430033     -0.06315188011519
  O   -3.05686265891394     -0.50376064994570     -0.04655930814569
  O   -1.36496442106175     -1.90685830316079     -0.13399500126784
  N   1.13289942443318     -1.00555714346950     -0.04475400351226
  O   1.44895502754572     -1.37473231226775     -1.16770494861348
  O   1.41239103239808     -1.50806447050535      1.03531091578092
  N   1.22896956935268      1.43240194104316      0.09321901050353
  O   2.43589702392078      1.21581386752689      0.10318858704859
  O   0.66625109026581      2.51662819372156      0.13980825971274
