12
Coordinates from ORCA-job run
  C   -0.77978905958475     -0.45698925898315      0.48689979303729
  C   0.42321022091759     -0.08886261423631      0.04536758520590
  H   -0.90828186015526     -1.24127304723764      1.22047244192681
  N   -2.01068404406614      0.16297362869272      0.02283171480179
  O   -1.93183744326464      1.05831564054356     -0.81506881332481
  O   -3.03946156051575     -0.28385400916964      0.53040385877909
  N   1.64197264020054     -0.75435506901722      0.55346702985682
  O   2.70099556293002     -0.34552571815751      0.08981539286773
  O   1.48334670066593     -1.64114589952948      1.37971430073164
  N   0.72016180634724      0.94969404497982     -0.93618258548588
  O   0.91860752909557      2.06709815598720     -0.47880718315988
  O   0.78375950742965      0.57392414612763     -2.09891353523650
