12
Coordinates from ORCA-job run
  C   -0.75769877522242     -0.62062144812089      0.30803490669283
  C   0.42689159940181     -0.06527054351027      0.05131885829289
  H   -0.85001731102242     -1.57432670401988      0.80973037968779
  N   -2.01614874314961      0.00193584597438     -0.07048788634267
  O   -1.98084660769126      1.10256210920696     -0.61583130357703
  O   -3.02145960427180     -0.65517593309242      0.20031988895841
  N   1.67553602565823     -0.74676766232960      0.45438257606153
  O   1.55869560873590     -1.81811103754628      1.03131855633969
  O   2.71444440978568     -0.16290676600723      0.16533222419650
  N   0.67452865697668      1.20785404952203     -0.61830215931290
  O   0.77114130916595      2.18040280153526      0.11786027902993
  O   0.80393343163325      1.14942528838794     -1.83367632002697
