12
Coordinates from ORCA-job run
  C   -0.94014618434985      0.34083579553959      0.23157961920819
  C   0.37183693558928      0.22435365783212      0.02490152631469
  H   -1.38913512710543      1.26197001804851      0.57754041576279
  N   -1.87193004459881     -0.75185471451224      0.00262417987864
  O   -1.42109261739487     -1.83530346634461     -0.36192438216970
  O   -3.05479430683345     -0.47452119770313      0.20187234516203
  N   1.08681310156627     -0.95978363898512     -0.44115065526797
  O   1.21755763045375     -1.05494787693127     -1.65405164548970
  O   1.51427210835201     -1.69685816919310      0.43697961368214
  N   1.27223788343826      1.37136384186292      0.26912899070797
  O   0.75528788536358      2.40363727642916      0.67095406562382
  O   2.46009273551923      1.17010847395717      0.04054592658710
