15

C	-0.501919	-0.08368	-1.449536
C	0.0	0.0	0.0
Cl	0.406763	-1.311835	-2.332993
H	1.094428	0.0	0.0
C	-1.925172	-0.404381	-1.524466
N	-3.065233	-0.688955	-1.50982
N	-0.281061	1.277443	-2.12131
O	0.859303	1.554439	-2.448274
O	-1.270676	2.000819	-2.214344
N	-0.364625	-1.236351	0.6774
H	0.456	-1.549393	1.182588
H	-1.144653	-1.121278	1.312597
C	-0.525261	1.192538	0.645592
N	-0.970899	2.141238	1.182072
F	2.490091	0.0	0.0
