15

C	-0.529154	-0.070237	-1.433037
C	0.0	0.0	0.0
Cl	0.407671	-1.239291	-2.37182
H	1.092657	0.0	0.0
C	-1.940366	-0.447674	-1.477755
N	-3.069235	-0.774004	-1.434355
N	-0.370945	1.300432	-2.103519
O	0.753593	1.773533	-2.087983
O	-1.378536	1.808438	-2.591415
N	-0.336838	-1.249068	0.671546
H	0.497891	-1.546577	1.160807
H	-1.104822	-1.151951	1.322585
C	-0.533323	1.181852	0.660222
N	-0.978101	2.114025	1.225503
F	2.490132	0.0	0.0
