15

C	-0.372792	-0.01514	-1.460745
C	0.0	0.0	0.0
Cl	0.006082	1.527189	-2.259763
H	1.095852	0.0	0.0
C	0.310854	-1.106368	-2.151461
N	0.839141	-1.990499	-2.715748
N	-1.891444	-0.235917	-1.684476
O	-2.631854	0.056007	-0.754379
O	-2.240305	-0.64947	-2.78357
N	-0.427957	-1.262583	0.579844
H	-1.285472	-1.166315	1.108901
H	0.317803	-1.5978	1.177839
C	-0.463181	1.189152	0.698501
N	-0.795236	2.116302	1.342349
F	2.485158	0.0	0.0
