15

C	-0.538704	-0.038858	-1.427877
C	0.0	0.0	0.0
Cl	0.405858	-1.173191	-2.407767
H	1.092575	0.0	0.0
C	-1.947513	-0.429119	-1.471623
N	-3.071113	-0.773177	-1.426533
N	-0.402599	1.337355	-2.090508
O	-1.338321	1.717287	-2.790406
O	0.645973	1.927742	-1.885954
N	-0.329369	-1.273034	0.635767
H	0.506201	-1.573963	1.123881
H	-1.09818	-1.197933	1.288067
C	-0.543183	1.155087	0.698517
N	-1.006138	2.057456	1.296795
F	2.491042	0.0	0.0
