15

C	-0.511338	-0.054197	-1.43641
C	0.0	0.0	0.0
Cl	0.408828	-1.250453	-2.363507
H	1.094678	0.0	0.0
C	-1.934279	-0.385891	-1.503368
N	-3.080028	-0.649508	-1.476013
N	-0.313557	1.286327	-2.157094
O	-1.06154	1.511597	-3.105269
O	0.598957	1.993279	-1.759695
N	-0.342957	-1.268207	0.639178
H	-1.126512	-1.185235	1.273482
H	0.481106	-1.568128	1.145879
C	-0.558246	1.155351	0.684158
N	-1.040281	2.064342	1.256608
F	2.494841	0.0	0.0
