15

C	-0.474946	0.03959	-1.445985
C	0.0	0.0	0.0
Cl	-2.246832	0.193534	-1.604163
H	1.092779	0.0	0.0
C	0.153312	1.115594	-2.202817
N	0.599997	1.99887	-2.836698
N	-0.030315	-1.296894	-2.088084
O	-0.874168	-2.144537	-2.32284
O	1.172902	-1.372186	-2.277666
N	-0.393007	-1.251817	0.617217
H	0.363269	-1.534929	1.226923
H	-1.256055	-1.182969	1.141202
C	-0.459962	1.196096	0.692104
N	-0.844678	2.147965	1.267898
F	2.483265	0.0	0.0
