15

C	-0.413929	0.039418	-1.448005
C	0.0	0.0	0.0
Cl	0.135011	1.529124	-2.234886
H	1.094701	0.0	0.0
C	0.100092	-1.127714	-2.161996
N	0.489827	-2.076235	-2.735743
N	-1.957588	-0.014001	-1.643727
O	-2.647312	-0.003091	-0.633205
O	-2.366442	-0.06531	-2.797527
N	-0.391799	-1.277515	0.572706
H	-1.224322	-1.208088	1.142234
H	0.387264	-1.611386	1.125958
C	-0.460965	1.167267	0.737009
N	-0.830304	2.069211	1.395878
F	2.489132	0.0	0.0
