15

C	0.0	0.0	0.0
C	-0.321272	0.161204	-1.539623
Br	2.007908	0.0	0.0
H	0.51617	0.685265	-2.003672
C	-0.33742	1.251387	0.690756
N	-0.520503	2.251309	1.279747
N	-0.564316	-1.098922	0.693675
H	-1.568594	-0.91891	0.807358
H	-0.44232	-1.953604	0.162289
N	-1.498581	0.962302	-1.746104
H	-1.707981	1.025432	-2.735195
H	-2.324144	0.592978	-1.254789
C	-0.322862	-1.203133	-2.123378
N	-0.284088	-2.275478	-2.604503
Cl	-3.868134	0.0	0.0
