15

C	0.0	0.0	0.0
C	-0.51948	0.187749	-1.44117
Br	1.946392	0.0	0.0
H	-1.6081	0.30563	-1.304867
C	-0.345493	1.184729	0.810383
N	-0.576236	2.115004	1.491974
N	-0.528249	-1.239899	0.498353
H	-1.553901	-1.11799	0.481072
H	-0.239655	-1.368746	1.461958
N	-0.154097	-0.973627	-2.253157
H	-0.284292	-1.782773	-1.652272
H	-0.835102	-1.046512	-3.001423
C	0.00753	1.415007	-2.046251
N	0.386591	2.391812	-2.576939
Cl	-3.510502	0.0	0.0
