15

C	0.0	0.0	0.0
C	-0.359346	0.194461	-1.528652
Br	1.956757	0.0	0.0
H	0.371275	0.919502	-1.901167
C	-0.34349	1.253953	0.698648
N	-0.589908	2.26266	1.251145
N	-0.585714	-1.182256	0.533641
H	-1.598343	-1.118419	0.377505
H	-0.4394	-1.22956	1.536409
N	-1.660336	0.686639	-1.875185
H	-2.430505	0.167461	-1.447487
H	-1.761974	1.636883	-1.539978
C	-0.085947	-1.075663	-2.222575
N	0.120172	-2.063319	-2.821677
Cl	-4.024273	0.0	0.0
