15

C	0.0	0.0	0.0
C	-0.354918	0.17464	-1.53492
Br	1.956918	0.0	0.0
H	0.386116	0.885037	-1.914805
C	-0.343783	1.264779	0.678925
N	-0.595957	2.28156	1.214276
N	-0.585947	-1.174164	0.550811
H	-0.445548	-1.204202	1.554337
H	-1.598192	-1.115647	0.387718
N	-1.64753	0.675135	-1.894612
H	-1.733018	1.640447	-1.598762
H	-2.4253	0.182358	-1.446235
C	-0.089588	-1.110109	-2.207481
N	0.116823	-2.112703	-2.781676
Cl	-3.991166	0.0	0.0
