15

C	0.0	0.0	0.0
C	-0.291651	0.335233	-1.532257
Br	2.016343	0.0	0.0
H	0.471186	1.055866	-1.840774
C	-0.344016	1.191073	0.780407
N	-0.58796	2.17283	1.378221
N	-0.590496	-1.153992	0.55447
H	-1.579259	-0.955489	0.743404
H	-0.528654	-1.931923	-0.094398
N	-1.575259	0.875773	-1.866484
H	-1.632351	1.829674	-1.529282
H	-2.351351	0.376821	-1.417536
C	-0.047634	-0.907616	-2.284197
N	0.122289	-1.91998	-2.85452
Cl	-3.892849	0.0	0.0
