15

C	0.0	0.0	0.0
C	-0.427873	0.004948	-1.477865
Br	2.106922	0.0	0.0
H	-1.526924	0.078845	-1.382695
C	-0.303324	1.272298	0.650491
N	-0.511797	2.296125	1.189142
N	-0.464975	-1.103398	0.736091
H	-1.452249	-0.912267	0.945825
H	-0.432791	-1.905035	0.11083
N	-0.094225	-1.274256	-2.08215
H	-0.734787	-1.467736	-2.840931
H	0.854026	-1.259671	-2.438128
C	0.074893	1.166586	-2.22185
N	0.480818	2.046169	-2.888632
Cl	-3.426476	0.0	0.0
