15

C	0.0	0.0	0.0
C	-0.320641	0.45219	-1.4802
Br	2.008085	0.0	0.0
H	0.534048	1.021644	-1.851264
C	-0.328134	1.097964	0.920416
N	-0.501139	1.962328	1.697584
N	-0.567638	-1.205984	0.48021
H	-1.568971	-1.041757	0.631554
H	-0.465956	-1.946266	-0.205874
N	-1.468105	1.317035	-1.527159
H	-2.305175	0.887403	-1.111938
H	-1.672105	1.570361	-2.487189
C	-0.38874	-0.776001	-2.310409
N	-0.471202	-1.718552	-3.010102
Cl	-3.832341	0.0	0.0
