18

C	0.0	0.0	0.0
C	-0.556198	-0.010788	-1.422964
Br	2.034263	0.0	0.0
H	-1.663715	-0.084929	-1.138076
N	-0.403116	1.21092	0.631448
H	0.229228	1.973268	0.43627
H	-0.514738	1.08765	1.628056
C	-0.484903	-1.20446	0.771029
H	-1.583622	-1.083691	0.729761
H	-0.101225	-1.18105	1.795546
H	-0.154889	-2.129841	0.295969
C	-0.099804	-1.172608	-2.171577
N	0.254067	-2.110006	-2.78818
C	-0.29359	1.275898	-2.200984
H	0.775873	1.51123	-2.234858
H	-0.65391	1.179868	-3.227973
H	-0.838602	2.088495	-1.719652
F	-2.911503	0.0	0.0
