18

C	0.0	0.0	0.0
C	-0.224856	0.032044	-1.563018
Br	1.967869	0.0	0.0
H	0.422388	-0.76076	-1.956305
N	-0.603279	1.152565	0.587212
H	-1.626888	0.931544	0.423375
H	-0.460544	1.107845	1.592488
C	-0.471808	-1.323041	0.58593
H	-0.146333	-1.398613	1.628743
H	-1.567762	-1.259676	0.536113
H	-0.082206	-2.185158	0.035832
C	0.299268	1.290358	-2.115107
N	0.658837	2.274852	-2.645883
C	-1.613043	-0.199469	-2.170899
H	-1.469831	-0.307888	-3.25384
H	-2.069084	-1.097913	-1.766707
H	-2.304734	0.601341	-1.938681
F	-2.97892	0.0	0.0
