18

C	0.0	0.0	0.0
C	-0.521906	-0.128069	-1.456506
Br	1.954566	0.0	0.0
H	-1.614742	-0.211326	-1.243157
N	-0.531987	1.154155	0.670954
H	-1.558907	0.968896	0.590241
H	-0.309776	1.991584	0.143011
C	-0.430368	-1.229308	0.793047
H	-1.524448	-1.213367	0.758625
H	-0.030303	-2.147584	0.358776
H	-0.076134	-1.127101	1.82044
C	-0.049835	-1.338037	-2.118184
N	0.316661	-2.300061	-2.687352
C	-0.260674	1.089183	-2.342595
H	0.807176	1.316347	-2.407919
H	-0.79255	1.955222	-1.945418
H	-0.639444	0.906318	-3.35138
F	-2.891694	0.0	0.0
