18

C	0.0	0.0	0.0
C	-0.217696	-0.316899	-1.558576
Br	1.977758	0.0	0.0
H	0.594321	-0.984082	-1.861326
N	-0.611209	1.183159	0.483807
H	-0.421761	1.959019	-0.143
H	-1.633863	0.944165	0.425405
C	-0.4826	-1.174101	0.830409
H	-0.173902	-1.027967	1.867499
H	-1.577272	-1.14161	0.753427
H	-0.079393	-2.120456	0.462226
C	-0.013833	0.926328	-2.304576
N	0.131252	1.929765	-2.899057
C	-1.534379	-0.97872	-1.988016
H	-1.532548	-2.015144	-1.639001
H	-2.389444	-0.479324	-1.516801
H	-1.581282	-0.98792	-3.082241
F	-3.046488	0.0	0.0
