18

C	0.0	0.0	0.0
C	-0.524192	-0.056685	-1.448411
Br	1.967028	0.0	0.0
H	-1.62094	-0.108909	-1.248536
N	-0.539956	1.200526	0.583397
H	-0.315234	1.192929	1.574553
H	-1.566763	1.002945	0.492782
C	-0.412876	-1.265387	0.752482
H	-0.007229	-2.171649	0.296665
H	-1.507618	-1.25133	0.719747
H	-0.059572	-1.206783	1.786694
C	-0.105937	-1.269628	-2.141144
N	0.213009	-2.226744	-2.744897
C	-0.19059	1.179339	-2.28239
H	-0.723457	1.14034	-3.23631
H	0.881946	1.244518	-2.481507
H	-0.501739	2.0652	-1.730718
F	-2.892521	0.0	0.0
