18

C	0.0	0.0	0.0
C	-0.209825	0.05825	-1.564398
Br	2.035855	0.0	0.0
H	0.514762	-0.629406	-2.013101
N	-0.489609	1.139948	0.62385
H	-1.01348	1.018185	1.470706
H	-0.000783	2.008213	0.497793
C	-0.631176	-1.235957	0.584474
H	-0.339817	-1.350216	1.631869
H	-1.723102	-1.042275	0.493247
H	-0.336544	-2.131591	0.034917
C	0.157811	1.400173	-2.022906
N	0.425762	2.48065	-2.398389
C	-1.620152	-0.294357	-2.050943
H	-1.724993	-1.383151	-2.064978
H	-1.742659	0.069707	-3.076151
H	-2.40539	0.080681	-1.354366
F	-3.324106	0.0	0.0
