18

C	0.0	0.0	0.0
C	-0.216604	0.051433	-1.557846
F	1.368685	0.0	0.0
H	0.070887	1.075476	-1.801001
C	-0.616795	1.131327	0.748304
H	-0.280565	1.134251	1.784906
H	-1.707784	1.002199	0.71245
H	-0.342846	2.070034	0.263513
N	-0.363209	-1.334582	0.637969
O	-0.15773	-2.346084	-0.030288
O	-0.734099	-1.318519	1.805132
N	-1.607659	-0.080186	-2.101179
O	-2.030017	-1.220199	-2.235333
O	-2.142016	0.958269	-2.47305
N	0.582131	-0.846368	-2.35489
H	1.553856	-0.722774	-2.104152
H	0.314312	-1.794595	-2.119186
Cl	-3.912494	0.0	0.0
