18

C	0.0	0.0	0.0
C	-0.586682	-0.022189	-1.409574
F	1.360659	0.0	0.0
H	-1.675145	-0.104247	-1.299394
C	-0.509315	1.176329	0.782205
H	-0.215077	2.08291	0.256861
H	-0.069629	1.148573	1.778044
H	-1.598143	1.119099	0.842557
N	-0.35264	-1.293165	0.736971
O	-0.269016	-1.267642	1.959314
O	-0.603099	-2.285516	0.060505
N	-0.136962	-1.212414	-2.239502
O	1.078279	-1.372531	-2.37089
O	-1.001866	-1.858555	-2.820233
N	-0.210623	1.185432	-2.088653
H	0.761848	1.132768	-2.367966
H	-0.798539	1.322367	-2.900264
Cl	-3.712095	0.0	0.0
