12
Coordinates from ORCA-job run
  C   0.55885965567111     -0.47686582824191     -0.22180684008295
  C   -0.58355433382059      0.32532841218419      0.37792068959171
  H   0.38061014632224     -1.53176755134565     -0.00236169261759
  H   -0.60867014517589      0.12423234601372      1.45108622848052
  H   0.53809047630056     -0.36772745730360     -1.31902429396397
  H   -0.37102462123375      1.40061209568441      0.25619759231591
  N   1.82643160133951     -0.07509221909867      0.38744171133362
  H   2.56307038321258     -0.70758798167660      0.10193514158190
  H   2.08520777392919      0.84757737785590      0.05943847330274
  N   -1.85425100400505     -0.09564459901854     -0.21154517134027
  H   -2.62495661157861      0.32644538915783      0.29050405753887
  H   -1.91081332096132      0.23049001578893     -1.16878589614052
