12
Coordinates from ORCA-job run
  C   0.51862686091341     -0.73732597025281     -0.12778364952644
  C   -0.66474420128781     -0.12643365735176      0.60911677282507
  H   0.99537941723088     -1.46132685292802      0.55003863808162
  H   -1.39955603794496     -0.92731459754077      0.78104082751404
  H   0.14728981610288     -1.30581528827242     -0.98926644769505
  H   -0.33161032891609      0.21614306267310      1.59647900631499
  N   1.41953262138937      0.30141715242640     -0.62446127187906
  H   2.33849448868555     -0.08335351309000     -0.79937796720677
  H   1.50809918911984      1.03890318320624      0.06274034085211
  N   -1.19461882900259      1.02720973555770     -0.11588399318617
  H   -1.19012796005520      0.84149411060338     -1.11060347876037
  H   -2.14676503623528      1.21540263496896      0.16896122266603
