12
Coordinates from ORCA-job run
  C   0.60068307989809     -0.73486718957034      0.07074554007946
  C   -0.70088055104023     -0.11150856546230      0.54506425716795
  H   0.41144165331562     -1.25389245971880     -0.88528184955547
  H   -1.43821835995750     -0.90100508812299      0.75121022076005
  H   0.91881606900779     -1.49416112339153      0.79223257349270
  H   -0.49766386557899      0.41451125249931      1.48112418878407
  N   1.61643470281819      0.30845347266386     -0.00899660419029
  H   2.44849970536769     -0.04129263819869     -0.46707953388471
  H   1.23361350999049      1.05477966931710     -0.57755404099795
  N   -1.15329000350061      0.87462180317184     -0.44219963379251
  H   -1.59064281825243      0.39845682525214     -1.22210429181996
  H   -1.84879312206810      1.48690404156041     -0.03616082604334
