19

C	0.0	0.0	0.0
C	-0.23665	0.061822	-1.530651
F	1.413189	0.0	0.0
H	0.354758	-0.772216	-1.932205
C	-0.513569	1.205901	0.739938
H	-0.192508	1.144516	1.785378
H	-1.609985	1.116301	0.655405
H	-0.149839	2.133718	0.297435
C	-0.501889	-1.285816	0.602258
H	-0.129991	-1.362686	1.629559
H	-0.161398	-2.153071	0.030505
H	-1.599115	-1.189055	0.57691
N	0.164797	1.354749	-2.036652
H	1.119697	1.500117	-1.731143
H	0.144406	1.34786	-3.049001
N	-1.611543	-0.271585	-2.073599
O	-1.876512	-1.468503	-2.102543
O	-2.253491	0.613875	-2.618867
F	-2.905143	0.0	0.0
