19

C	0.0	0.0	0.0
C	-0.352907	0.169607	-1.507202
F	1.40052	0.0	0.0
H	0.497953	0.689085	-1.961748
C	-0.498861	1.201883	0.773114
H	-0.169161	2.132474	0.306771
H	-0.109706	1.150942	1.795775
H	-1.590936	1.146753	0.774944
C	-0.539334	-1.277006	0.598454
H	-0.1247	-2.158673	0.105618
H	-0.278168	-1.317451	1.659821
H	-1.630668	-1.227577	0.488275
N	-1.580232	0.783933	-1.755978
H	-2.360786	0.422518	-1.119082
H	-1.822846	0.729927	-2.736095
N	-0.194213	-1.238709	-2.164314
O	-1.208755	-1.867688	-2.455458
O	0.956892	-1.639611	-2.355035
F	-3.23254	0.0	0.0
