19

C	0.0	0.0	0.0
C	-0.357571	0.434179	-1.451945
F	1.401059	0.0	0.0
H	0.503237	1.005364	-1.819406
C	-0.493131	1.045782	0.977142
H	-0.162226	2.04386	0.683322
H	-1.584811	0.992768	0.974571
H	-0.097625	0.811568	1.970903
C	-0.545	-1.360454	0.364404
H	-1.635702	-1.285166	0.262916
H	-0.286768	-1.587206	1.403221
H	-0.130711	-2.142623	-0.274117
N	-1.570636	1.111093	-1.578287
H	-1.815053	1.239545	-2.550354
H	-2.354806	0.647051	-1.020104
N	-0.242786	-0.840805	-2.356884
O	0.887238	-1.297115	-2.542454
O	-1.270319	-1.305651	-2.843901
F	-3.22173	0.0	0.0
