19

C	0.0	0.0	0.0
C	-0.533123	0.120106	-1.424378
F	1.40472	0.0	0.0
H	-1.633752	0.090606	-1.29298
C	-0.48319	1.150196	0.857634
H	-0.162987	0.979732	1.889855
H	-0.07175	2.104773	0.52133
H	-1.577714	1.12638	0.780451
C	-0.492559	-1.315505	0.567763
H	-1.587445	-1.235371	0.55364
H	-0.116932	-1.424689	1.590294
H	-0.145004	-2.151044	-0.040887
N	0.006822	-0.893965	-2.274159
H	1.006128	-0.748545	-2.35783
H	-0.408277	-0.836338	-3.194927
N	-0.183397	1.508665	-1.959434
O	-1.017616	2.405783	-1.85042
O	0.930491	1.657055	-2.475542
F	-2.980993	0.0	0.0
