19

C	0.0	0.0	0.0
C	-0.350619	0.505501	-1.42911
F	1.402031	0.0	0.0
H	0.505508	1.106464	-1.759536
C	-0.494117	0.998436	1.024831
H	-0.158077	2.00824	0.781444
H	-0.105181	0.715315	2.008366
H	-1.586834	0.950124	1.01648
C	-0.54615	-1.37621	0.292835
H	-0.287349	-1.659325	1.317445
H	-1.635687	-1.294818	0.192615
H	-0.132952	-2.123879	-0.38646
N	-1.574108	1.165746	-1.537553
H	-2.354877	0.674073	-0.999021
H	-1.813174	1.328286	-2.506407
N	-0.19802	-0.722186	-2.391632
O	0.948852	-1.112303	-2.621877
O	-1.21433	-1.221641	-2.87004
F	-3.223163	0.0	0.0
