19

C	0.0	0.0	0.0
C	-0.561307	0.190911	-1.414249
F	1.40359	0.0	0.0
H	-1.646317	0.312481	-1.237822
C	-0.466893	1.121217	0.909521
H	-1.561857	1.086965	0.879764
H	-0.095486	0.936493	1.922436
H	-0.091919	2.089875	0.573011
C	-0.495917	-1.32976	0.531634
H	-0.153258	-1.454215	1.563301
H	-1.592287	-1.262122	0.48728
H	-0.110638	-2.163817	-0.061279
N	-0.290277	-0.853377	-2.368088
H	-0.974388	-1.584723	-2.227646
H	0.637835	-1.230665	-2.221635
N	-0.000772	1.462057	-1.982773
O	-0.65246	2.499299	-1.841741
O	1.098859	1.39983	-2.534293
F	-2.981801	0.0	0.0
