19

C	0.0	0.0	0.0
C	-0.550288	-0.071141	-1.42224
F	1.397224	0.0	0.0
H	-1.650144	-0.031743	-1.27032
C	-0.480821	1.250967	0.707563
H	-1.575409	1.215353	0.649038
H	-0.081977	2.157213	0.24703
H	-0.145607	1.214304	1.748558
C	-0.492966	-1.228309	0.740787
H	-0.132465	-2.138457	0.260781
H	-0.131724	-1.188524	1.773485
H	-1.587752	-1.161582	0.704579
N	-0.089754	-1.232457	-2.115873
H	0.905813	-1.146029	-2.27721
H	-0.556819	-1.310262	-3.009374
N	-0.139984	1.197251	-2.170563
O	0.922792	1.170657	-2.800559
O	-0.878278	2.178772	-2.109472
F	-2.990715	0.0	0.0
