19

C	0.0	0.0	0.0
C	-0.523157	0.038306	-1.432912
F	1.404741	0.0	0.0
H	-1.623443	-0.002946	-1.312588
C	-0.483435	1.198645	0.787534
H	-0.171407	1.086193	1.830118
H	-1.577716	1.175562	0.704957
H	-0.063334	2.130045	0.40013
C	-0.492047	-1.281279	0.640818
H	-0.149904	-2.149335	0.075988
H	-0.109235	-1.336215	1.665024
H	-1.586883	-1.19916	0.628857
N	0.052644	-1.005444	-2.221348
H	-0.329816	-0.991014	-3.157815
H	1.052309	-0.850923	-2.276932
N	-0.196057	1.405213	-2.034015
O	0.924224	1.553689	-2.534539
O	-1.053394	2.284968	-1.989179
F	-2.976394	0.0	0.0
