13
Coordinates from ORCA-job run
  C   -0.61936114853215      0.07506573067542     -0.00119825875831
  C   0.80790944095698     -0.44699945180583      0.00046042437273
  F   -0.87216885789922      0.52804378163116     -1.31931932125215
  H   0.81277312497388     -1.35325216680325     -0.62719286334525
  H   1.05179009183804     -0.74325226130952      1.02219971250670
  N   -1.53219808285259     -0.92470951605259      0.40363714151372
  H   -2.48402772472874     -0.58183681671470      0.41244545432498
  H   -1.46653095301249     -1.73577021436290     -0.19805643244194
  C   -0.76338508327821      1.25773640706973      0.86828949753124
  N   -0.90393207324975      2.20149341894770      1.55040006601691
  N   1.70729656692846      0.60487657959799     -0.43203495746055
  H   1.59474888186565      0.77237361649116     -1.42258312722334
  H   2.66808581699014      0.34523089263563     -0.25704733578474
