13
Coordinates from ORCA-job run
  C   -0.67603852946413      0.10631519292264     -0.24144889804725
  C   0.82181796117298      0.39297411639809     -0.12874034420225
  F   -0.87894895303586     -0.33041738060387     -1.57518640742771
  H   1.10652111227306      1.01946699717539     -0.98286664557716
  H   0.99468304958846      0.95716572929299      0.79077932329259
  N   -1.09743373996939     -0.85938203175769      0.67316792428611
  H   -0.34675313781482     -1.35069833462136      1.13082820047606
  H   -1.93286916807386     -0.69072106006455      1.20194409631486
  C   -1.44987895988906      1.35617984837133     -0.11235617939232
  N   -2.04147737219347      2.36070390504580      0.02339231913877
  N   1.52349810744134     -0.88073734593487     -0.03699578346215
  H   1.47956032815489     -1.35434478490229     -0.93108669267822
  H   2.49731930180985     -0.72750485132161      0.18856908727866
