13
Coordinates from ORCA-job run
  C   -0.64105553925100     -0.00354480267405     -0.21677318890345
  C   0.82610940070566      0.37416777661485     -0.37417037199667
  F   -1.05798969993474     -0.76358896290896     -1.28338838675987
  H   1.07535099639421      1.04368436787196      0.46706724732184
  H   0.92092557829209      0.95622702783430     -1.29458943251749
  N   -0.82219770040789     -0.80976331495876      0.96358096815725
  H   -0.64413700760219     -0.26081121397337      1.79657655405516
  H   -1.77639427269440     -1.14984168597212      1.00126955746517
  C   -1.47487790180476      1.23040011643922     -0.21973869486348
  N   -2.11510144363393      2.21317318010707     -0.15756648960105
  N   1.62591317179695     -0.83027137898096     -0.47958482631835
  H   2.60634922901558     -0.59045468375761     -0.54055267815159
  H   1.47810518912444     -1.40837642564155      0.33686974211253
