13
Coordinates from ORCA-job run
  C   -0.71226470986234      0.01043244588787     -0.20094850429496
  C   0.70328246470203     -0.21963644895514     -0.70693668517374
  F   -1.58326213603442     -0.40381960785277     -1.22730974383774
  H   0.79883451182424     -1.30344564472824     -0.88680232507150
  H   0.79864809844453      0.28380403584281     -1.67105921539546
  N   -0.92954131070430     -0.70627245180448      1.00335105285881
  H   -1.83613892407150     -0.50266739570859      1.40459591303700
  H   -0.85245334208656     -1.70186031036496      0.83059626381449
  C   -0.98046557096232      1.44282088531682      0.02743865380728
  N   -1.24446850535594      2.57062448312795      0.21289403037783
  N   1.64009650735103      0.35371700847478      0.23761709970213
  H   2.58060120906504      0.33750971285289     -0.13176143860150
  H   1.61713170769052     -0.16120671208895      1.10732489877737
