13
Coordinates from ORCA-job run
  C   -0.70528419722187      0.03229115399494     -0.22056535137523
  C   0.75025866227631     -0.41084127946322     -0.05095344531073
  F   -0.90743634795375      0.19067639667971     -1.58872114935780
  H   0.83216916330295     -1.36123602071893     -0.59416104837414
  H   0.91212866248604     -0.62117524445405      1.01210967717561
  N   -1.65279204005884     -0.89847501066357      0.29236842449039
  H   -1.28472913913731     -1.83388936945793      0.37982200370356
  H   -2.12744216832402     -0.60467667650771      1.13089406509825
  C   -0.90837068102634      1.34960309716083      0.41315908296092
  N   -1.05645191085158      2.36300479373769      0.98572962038740
  N   1.66065416454742      0.59120525389630     -0.56874302317243
  H   2.27174045023067      0.95205341480896      0.14765046757661
  H   2.21555538173032      0.25045949098699     -1.33858932380241
