13
Coordinates from ORCA-job run
  C   -0.64228912038553      0.24684519006932     -0.10516514830038
  C   0.88003990534709      0.32251561426254     -0.03277488432396
  F   -0.94872297065582     -0.12435839809352     -1.44199500652115
  H   1.15064457179789      0.68780372164160      0.95942931491799
  H   1.21623118615711      1.05137414115799     -0.77970046073683
  N   -1.13578583607115     -0.66777042119458      0.83921036881451
  H   -2.12613240892902     -0.83723342629101      0.72722021619942
  H   -0.59753582193351     -1.52404263710406      0.77181817070984
  C   -1.25371961770052      1.57584531302514      0.08678645249247
  N   -1.72228827847623      2.63997227338486      0.24435818196626
  N   1.40388162136689     -1.02478995165739     -0.21748967945950
  H   2.34160445701326     -1.09454859212933      0.15223637917642
  H   1.43307231246953     -1.25061282707155     -1.20293390493508
