13
Coordinates from ORCA-job run
  C   -0.66928706870078      0.02622877670227     -0.06996863505189
  C   0.78283551173501     -0.44692108118823     -0.08231175335426
  F   -1.07393122916731      0.19795161289818     -1.39952712094465
  H   1.04187619457778     -0.73642828218461      0.94279614265299
  H   0.80044352122366     -1.34738563434747     -0.70442646127575
  N   -1.49272204449898     -0.89416058125091      0.62800743814892
  H   -2.46047772651521     -0.59727656756767      0.62131751921641
  H   -1.42412333568639     -1.81367957625786      0.20876778530196
  C   -0.76592065919787      1.35221098263995      0.57443115790274
  N   -0.81342984557535      2.39022534911664      1.11912866358017
  N   1.63926187796915      0.56751282437097     -0.66835783180188
  H   2.05499114151824      1.14950870277898      0.04541416408470
  H   2.37948366231805      0.15421347428976     -1.21527106845947
