13
Coordinates from ORCA-job run
  C   -0.72734104646287      0.01440436856265     -0.22033912538370
  C   0.70760303309004     -0.33921494538977     -0.60196516689368
  F   -1.51391198325038     -0.39649563349450     -1.31967625638368
  H   0.92904674768206      0.21066768720064     -1.52678035443149
  H   0.69577815195365     -1.40485159950560     -0.85215974323682
  N   -1.12034869510130     -0.57181714536851      0.99340794416613
  H   -0.78414858240315     -1.51881988655482      1.09144562288476
  H   -2.11682128379468     -0.50663147570621      1.14923092597100
  C   -0.90355865964842      1.48223614711673     -0.13326371984499
  N   -0.98598299928229      2.65104785834823     -0.06421754429458
  N   1.62477785640170     -0.12032734132036      0.50326441108101
  H   2.56472899409036     -0.35841753001065      0.21271312014262
  H   1.62817846672530      0.85821949612216      0.76733988622342
