13
Coordinates from ORCA-job run
  C   -0.61571844328222      0.03215156092162     -0.27859546488396
  C   0.86009386847337      0.40652154700159     -0.23510816340470
  F   -0.92056016035715     -0.58117987492136     -1.47020283820058
  H   1.05042827629880      1.09983197601566     -1.05854269688320
  H   1.02124707238766      0.95986022116766      0.70622743747403
  N   -0.91810457361868     -0.91436733787390      0.76503293562278
  H   -0.83100728258614     -0.47608737518772      1.67460806143384
  H   -1.87031373204290     -1.24554611630070      0.65889311504841
  C   -1.44461702402270      1.26747374131398     -0.21055865954823
  N   -2.09020155820943      2.24169714871269     -0.09416782156905
  N   1.66565306595879     -0.78529117427832     -0.41189873815401
  H   1.44635661037424     -1.45538033187269      0.31284157444986
  H   2.64774388062636     -0.55068398469851     -0.35852874138520
