13
Coordinates from ORCA-job run
  C   -0.68588039418530      0.12146201365404     -0.20711810211189
  C   0.82886373404253      0.33082955674239     -0.21798921303848
  F   -1.00254965564125     -0.42046725223947     -1.47714416055345
  H   1.09292961738491      0.96273179308706      0.63323416218607
  H   1.08577686860010      0.86230692213019     -1.14244961250335
  N   -1.09471112544348     -0.73468077508219      0.81830818823252
  H   -1.86619332558392     -0.45377323819061      1.39518887953935
  H   -0.33707834908390     -1.22325487707671      1.26848010757027
  C   -1.38244496748636      1.42087141061083     -0.14258145505671
  N   -1.90837941880158      2.46727363198519     -0.06548278083481
  N   1.46914945555196     -0.96796469442879     -0.05567037514656
  H   2.46292546529480     -0.85133752712396      0.09089914419074
  H   1.33959209535147     -1.51399696406795     -0.89867478247368
