13
Coordinates from ORCA-job run
  C   -0.66984792783021     -0.01131535165776     -0.06719711255823
  C   0.79722721235815     -0.42707990791497      0.02183508847418
  F   -1.07620196197813     -0.16215209382633     -1.39906582886283
  H   1.06410362228419     -0.45917108927400      1.08452932529083
  H   0.84494672350347     -1.44765619340455     -0.37102377224792
  N   -1.46420131618236     -0.77474786669769      0.82653616286710
  H   -1.36677039291661     -1.76272065858338      0.62557471940729
  H   -2.44084902762109     -0.51715955601321      0.75878166773526
  C   -0.81206070056606      1.42290796981807      0.25583898172805
  N   -0.89114422305423      2.56073049642494      0.53055355807085
  N   1.62102002310520      0.44915826494557     -0.78996821712609
  H   2.36527727442224     -0.05855908807356     -1.24371240115852
  H   2.02850069447545      1.18676507425686     -0.23268217161999
