13
Coordinates from ORCA-job run
  C   -0.65500209418184      0.19115531666226     -0.14158410694034
  C   0.85950951922589      0.36422528628502     -0.07337384315823
  F   -0.92324996300162     -0.38221105377146     -1.41337092849115
  H   1.16366604072607      0.99963987515993     -0.91354708870947
  H   1.09588282211252      0.87970260463973      0.85910180825450
  N   -1.10816775821948     -0.60780009670594      0.92066732846935
  H   -0.52221733753363     -1.43294754620155      0.97752956519829
  H   -2.08582844343402     -0.84828769282685      0.82883906917716
  C   -1.34107864950422      1.49748002772051     -0.14327212341696
  N   -1.85819459751538      2.55076420846617     -0.14737579621001
  N   1.46114805119597     -0.96317770966239     -0.06380122071859
  H   2.39645056671022     -0.92551422481359      0.31663291999164
  H   1.51608184341952     -1.32302899495188     -1.00744558344617
