13
Coordinates from ORCA-job run
  C   -0.76332925080073     -0.13584431120482     -0.34410846153889
  C   0.72290813620026     -0.30176235314748     -0.64537374853068
  F   -1.47127201752096     -0.54473245081643     -1.46323394609921
  H   0.94498968469044      0.24613262344857     -1.56893368665146
  H   0.86508446434054     -1.36840708225031     -0.83243975574191
  N   -1.11625169061780     -0.94759734315902      0.76578336605245
  H   -2.00598788443311     -0.68420824383499      1.16824920024060
  H   -0.38036043044417     -0.87252702118747      1.45939774551154
  C   -1.07431534801416      1.30790388106816     -0.15758104819614
  N   -1.26572377597928      2.44786130087861      0.05198054699402
  N   1.49807878009983      0.09614154527204      0.52239169413791
  H   1.63749678902202      1.09916886799491      0.53336210318996
  H   2.40868254345714     -0.34212941306174      0.51050599063181
