13
Coordinates from ORCA-job run
  C   -0.74617624848314     -0.12176606624413     -0.38363376863672
  C   0.75086126841875     -0.31122739633576     -0.60776226444719
  F   -1.40130398892446     -0.51467978630885     -1.54036194538054
  H   0.88455440837089     -1.37932099497759     -0.79267101212628
  H   1.02961544188180      0.23678491112105     -1.51581295831806
  N   -1.16991188724441     -0.93232070230224      0.70199859392336
  H   -2.07574295389722     -0.65690904753505      1.05782697225563
  H   -0.47097581323971     -0.87215412686200      1.43418644447493
  C   -1.04275998238561      1.32610006110551     -0.20732357979158
  N   -1.22326723882007      2.46917540199826     -0.00516103714218
  N   1.47027229613816      0.06893530057661      0.60069783138291
  H   1.62241389183767      1.06990900849069      0.62511195024444
  H   2.37442080634739     -0.38152656272651      0.63290477356126
