13
Coordinates from ORCA-job run
  C   -0.82166472850875     -0.01217787651776     -0.28063488042904
  C   0.63738589295200     -0.32467018394996     -0.62193161489619
  F   -1.58818295691936     -0.41356022900775     -1.35754762540015
  H   0.70058360079856     -1.40965067163322     -0.74580993540479
  H   0.88320888510825      0.14235999210407     -1.58450637820240
  N   -1.33948211025664     -0.65969092267504      0.88997777022629
  H   -0.71518470869566     -0.44888761762697      1.66186844486147
  H   -1.31567061201760     -1.66203613843735      0.73092784469446
  C   -0.96272900018873      1.45477307617128     -0.12175841238676
  N   -0.99514027494244      2.62291128580583     -0.01508999157967
  N   1.46906603532127      0.09058633877790      0.50049403869597
  H   1.72310390197092      1.06655998163226      0.41117666421639
  H   2.32370607537819     -0.44751703464328      0.53283407560446
