13
Coordinates from ORCA-job run
  C   -0.80270914750006     -0.00617148934297     -0.32960327490429
  C   0.67229241652578     -0.32614559279103     -0.58361168627839
  F   -1.50477985188868     -0.39853808817784     -1.45299071324159
  H   0.97795401571270      0.14247052274855     -1.52818880272431
  H   0.73562504669802     -1.41113750059553     -0.70715427234215
  N   -1.39456818282925     -0.65598255178119      0.80403756022862
  H   -0.81686616926633     -0.45502285710490      1.61380631329119
  H   -1.36978893508475     -1.65751293487854      0.64039408037576
  C   -0.94537797414669      1.46067436435888     -0.17222587304834
  N   -0.97479746057098      2.62825879724372     -0.05881136652981
  N   1.43741030056582      0.07930281416496      0.58851721244752
  H   2.29073609031001     -0.45682712926253      0.66317226704485
  H   1.69386985147441      1.05663164541841      0.52265855568095
