13
Coordinates from ORCA-job run
  C   -0.75058828071833     -0.11489277994331     -0.37703581669354
  C   0.74237312545399     -0.32304957036463     -0.61141135904092
  F   -1.41896378671922     -0.50549359126147     -1.52700616020988
  H   1.02090743973690      0.21803791345684     -1.52369258953607
  H   0.86200190325961     -1.39336875849103     -0.79282854890275
  N   -1.17568586715095     -0.91528803585072      0.71552566450626
  H   -0.47056392401148     -0.86074420849019      1.44216494063157
  H   -2.07540264490623     -0.62757578176838      1.07703519557363
  C   -1.02890176637302      1.33723612142999     -0.20599695959922
  N   -1.19366342169173      2.48445106563060     -0.01413451885071
  N   1.47507421701676      0.05377370763631      0.59014650629358
  H   2.37414915376822     -0.40706991982507      0.61760157238490
  H   1.63926385233548      1.05298383784105      0.60863207344316
