13
Coordinates from ORCA-job run
  C   -0.61824484498849      0.00345735388925     -0.17007885258938
  C   0.83833365502255     -0.40561851711838     -0.02966042970236
  F   -0.82157056856588      0.39629937759734     -1.48725540302248
  H   1.02152813489681     -0.69391780888845      1.00974617366289
  H   0.96048700405235     -1.29509196781863     -0.66253925514234
  N   -1.48655423501543     -1.10842351152081      0.07435744564680
  H   -2.45568847562630     -0.81403933203545      0.05108229020757
  H   -1.29460440374226     -1.52005585868893      0.97901593204837
  C   -0.91449252190899      1.19518592207417      0.66572980157003
  N   -1.21436246100293      2.07769615789872      1.37971888864802
  N   1.68212493851738      0.72723824612813     -0.36334669061237
  H   2.63777821237224      0.55370923693867     -0.08427206435961
  H   1.66726556598894      0.88256070154439     -1.36249783635515
