13
Coordinates from ORCA-job run
  C   -0.70595106181381      0.02923787871651     -0.21836042027033
  C   0.72070595611431     -0.21080174719413     -0.68728781989960
  F   -1.55147564637529     -0.33780997081758     -1.28333998455284
  H   0.85545194619130      0.32108059174151     -1.63121096222813
  H   0.80226623212428     -1.29003458169257     -0.89888730753454
  N   -0.97310024665119     -0.72005718462897      0.95564604601221
  H   -1.88950927283981     -0.51445055485027      1.33293498356035
  H   -0.90570107674730     -1.71108837697299      0.75491295680343
  C   -0.95573552718323      1.45946025133876      0.04233067366140
  N   -1.19913849164501      2.59463140111013      0.21039521463545
  N   1.63702962229951      0.31473773488666      0.30388777019407
  H   2.58833688130567      0.29309221363796     -0.03643091818383
  H   1.57782068522058     -0.22699765527504      1.15540976780232
