13
Coordinates from ORCA-job run
  C   -0.65667238906112     -0.12376388568640     -0.20597231497871
  C   0.82127416734584     -0.43929172737584     -0.00562733667053
  F   -0.98421016673764     -0.30704407594286     -1.53105372025562
  H   0.95426032673622     -1.43973650150558     -0.42253155940875
  H   1.02015764133588     -0.49711052302816      1.07440206091139
  N   -1.46731761355879     -1.03148082052197      0.55355170952555
  H   -1.26094193846192     -0.95972012623644      1.54185705128529
  H   -2.44932288103566     -0.82554643315593      0.41206602669954
  C   -0.90836472448787      1.31102668164561      0.10057796350844
  N   -1.10024781042697      2.42150159044424      0.43127318844493
  N   1.63952671588844      0.52155815972962     -0.72017292184076
  H   2.46331172989479      0.08645450414717     -1.10729962722229
  H   1.92754694256881      1.28315315748656     -0.12207051999846
