13
Coordinates from ORCA-job run
  C   -0.80401073619009      0.00333064080914     -0.32798375872782
  C   0.66453757088428     -0.34153567880802     -0.58544890414025
  F   -1.51502432814301     -0.38054622087754     -1.44858124091756
  H   0.97533916787043      0.11654445896137     -1.53339966984903
  H   0.71049001238864     -1.42804613590869     -0.70341970297304
  N   -1.40379831890151     -0.63243573511528      0.80922657841309
  H   -0.83850913248679     -0.41360216838617      1.62289738687928
  H   -1.36941859348185     -1.63663619461596      0.66461913010535
  C   -0.92266251958402      1.47262921412215     -0.17365094570798
  N   -0.93543139324566      2.64125021701999     -0.06820177384267
  N   1.44080417791210      0.05885736144556      0.58194422928227
  H   1.71457788391705      1.03081841206578      0.50609135531819
  H   2.28510620906043     -0.49162817071232      0.65590731616019
