13
Coordinates from ORCA-job run
  C   -0.67187204305702      0.01606877877828     -0.04055619845384
  C   0.79133936196771     -0.39909105223755     -0.18163714291236
  F   -1.12726907662583      0.41148574568079     -1.30467343615110
  H   0.81028234239253     -1.17633815176908     -0.95221766180106
  H   1.09519000344140     -0.85431769129085      0.76811070273549
  N   -1.44491578231640     -1.04250650121096      0.50211318263570
  H   -1.36893371526832     -1.86693770523094     -0.08144722580168
  H   -2.41955796004089     -0.78039986428795      0.58068062546294
  C   -0.78184417244191      1.20026896943343      0.83534495010363
  N   -0.83444286732960      2.13153514463371      1.54695461179547
  N   1.59838147170655      0.72999582490336     -0.60522494920224
  H   2.31878347950542      0.44746193948188     -1.25237588993509
  H   2.03585895806637      1.18277456311591      0.18492843152413
