13
Coordinates from ORCA-job run
  C   -0.68348205920756     -0.01791717061972     -0.20473739507311
  C   0.71648421204734     -0.33795197123834     -0.73994047402953
  F   -1.59934581086240     -0.35478327167953     -1.21837741268236
  H   0.74948742747410     -1.42205531970690     -0.89814114916035
  H   0.81498898985173      0.13277318349694     -1.72006397923514
  N   -0.93004542325129     -0.71595129237244      1.00216231730521
  H   -1.83368833836337     -0.48718848875642      1.39649678139937
  H   -0.86965024179269     -1.71538562479255      0.84748310797732
  C   -0.82480229757495      1.43260975117930      0.03151366261068
  N   -0.89350728046705      2.59214100297613      0.19926472902649
  N   1.81099365292790      0.06782710043906      0.11233260800055
  H   1.64908909681916     -0.25151184224552      1.05883534336217
  H   1.89347807239910      1.07639394331998      0.13217186049871
