13
Coordinates from ORCA-job run
  C   -0.56646137444628      0.16058408582493     -0.10077207697365
  C   0.94233157904945      0.26276437186539     -0.35206270262428
  F   -1.14732739814876     -0.48661169837288     -1.17991323456392
  H   1.40066640795793      0.76686566201842      0.50560840004110
  H   1.09428271081966      0.90376788201041     -1.22393775128644
  N   -0.82798086147746     -0.65096069268330      1.05428868318783
  H   -0.43150469245365     -0.22511603013378      1.88358914686531
  H   -1.82655453222608     -0.75689080690914      1.19188017192949
  C   -1.17784339657156      1.51186735561175     -0.03785920150570
  N   -1.62116735565649      2.59427367555818      0.07242894681775
  N   1.58758773353110     -1.01232485534926     -0.57702652961519
  H   1.35997963119600     -1.64043985834852      0.18412419317784
  H   1.21499154842612     -1.42677909109220     -1.42234804545011
