13
Coordinates from ORCA-job run
  C   -0.66446515742642     -0.05046654888197     -0.21227101856651
  C   0.82389571671204     -0.38031059131117     -0.21169969648210
  F   -1.05332938505382      0.29059810230334     -1.48887550597702
  H   0.94512225448483     -1.13241629980844     -0.99400607583291
  H   1.07359391668011     -0.85311141364898      0.74936235621798
  N   -1.43046122586522     -1.20389305253653      0.16261818329734
  H   -2.41988368470460     -0.98554499435438      0.15015490995868
  H   -1.18024630210367     -1.51744346558559      1.09191371129079
  C   -0.91313467150780      1.14288538197837      0.64213259621557
  N   -1.09766516721487      2.02636131123189      1.39366326147930
  N   1.59960411692248      0.80474965108441     -0.52276967664581
  H   1.90354317358675      1.28134957035845      0.31463403604653
  H   2.41142641549022      0.57724234917056     -1.07685708100181
