13
Coordinates from ORCA-job run
  C   -0.57926539658317      0.24934959679608     -0.11947727859472
  C   0.94739250895883      0.35988980076143     -0.21900285387319
  F   -1.01814821810628     -0.29368398970461     -1.35220806874822
  H   1.30806064858011      0.90536357254004      0.65524843901053
  H   1.16648347590514      0.95832471423837     -1.10658526414343
  N   -0.98120652328742     -0.54427282692258      0.97744296856020
  H   -0.57525549887756     -1.46779799454412      0.90331214943559
  H   -1.98858165291460     -0.62317007774337      1.03219817172447
  C   -1.19090523592300      1.58626402141606     -0.01675416737186
  N   -1.64928722903665      2.66401682739128      0.05839324115046
  N   1.64501739189740     -0.90336433662629     -0.31816699814205
  H   1.65612825363096     -1.40971857417916      0.55561040440082
  H   1.25856747575625     -1.48120073342315     -1.05201074340860
