13
Coordinates from ORCA-job run
  C   -0.59652130546232     -0.02752287443309     -0.15391220572500
  C   0.86371369462377     -0.48756978184799     -0.16157805585188
  F   -0.89667088875635      0.45590749266775     -1.42191011197871
  H   1.11870805310506     -0.87382141049115      0.83026468004883
  H   0.90655384307569     -1.31907275382110     -0.87019601110323
  N   -1.47454759497134     -1.11851156678982      0.11291547792580
  H   -1.16193189269133     -1.65638915427971      0.91031208999324
  H   -2.42529737129295     -0.80776176715464      0.26805356607542
  C   -0.75417608592834      1.12982535901417      0.76609501797099
  N   -0.85011707935682      1.99680645398574      1.55297684369332
  N   1.82751310360883      0.52049815739233     -0.54009239371281
  H   1.57754060985739      0.92025255906009     -1.43505368031094
  H   1.86623291418872      1.26635928669741      0.14312478297497
