13
Coordinates from ORCA-job run
  C   -0.58639163169083      0.02130807357748      0.01562960426593
  C   0.83225678542010     -0.51931543693324     -0.18601530695027
  F   -0.95690586120865      0.63608166912945     -1.20519834852161
  H   1.15207894738885     -0.98420916907617      0.74862057766753
  H   0.75806154830990     -1.30800448791599     -0.94349657875013
  N   -1.47939149289438     -1.00010082127572      0.40026547320358
  H   -1.46260730925665     -1.76336932186045     -0.26409238115321
  H   -2.42575202859644     -0.65877610564859      0.50843638703388
  C   -0.59055513717857      1.10052490504319      1.02235053800924
  N   -0.54013081253101      1.95392257295534      1.82626584636377
  N   1.81489099697614      0.44963013336832     -0.61391074065480
  H   2.00222206913235      1.12286868747493      0.11815156321646
  H   1.48122392612922      0.94843930116143     -1.42800663373038
