13
Coordinates from ORCA-job run
  C   -0.80961035103120      0.00305477588846     -0.32068305136050
  C   0.66166328056978     -0.30962738820611     -0.60605540109527
  F   -1.52844367413945     -0.36087413605910     -1.44262280184092
  H   0.95177576008841      0.18588806456899     -1.54183962916914
  H   0.72206823978817     -1.39061261532952     -0.76202817708634
  N   -1.38365995945814     -0.67551689849536      0.80529388647673
  H   -1.35721122889343     -1.67286957407531      0.61773629994436
  H   -0.79490216305354     -0.49188604702228      1.61124906908618
  C   -0.94790156421203      1.46506391750353     -0.12005491877826
  N   -0.96119594062873      2.62449594954481      0.06059907573531
  N   1.44573455993170      0.06191026258156      0.56431228467843
  H   2.29840542485147     -0.47821259098709      0.61182419388060
  H   1.70327761618697      1.04018628008743      0.52226916952886
