13
Coordinates from ORCA-job run
  C   -0.59512604528921     -0.01026643801728     -0.15936933519898
  C   0.85916400161440     -0.48778671384442     -0.18437096294416
  F   -0.87802899436069      0.55579972621784     -1.39717463160581
  H   1.10049148299355     -0.93816153652483      0.78358968135584
  H   0.89742063645851     -1.27434944792150     -0.94284533565045
  N   -1.48906273292891     -1.10368297817806      0.03190684994677
  H   -2.43668961146368     -0.79136557541013      0.20184258429140
  H   -1.18814197731813     -1.69740027123867      0.79329612448292
  C   -0.74685784926292      1.09032097116226      0.82903078715306
  N   -0.84304334447582      1.91139520989466      1.66363406591654
  N   1.83873606790844      0.52883990208184     -0.49207038566093
  H   1.60255100507491      0.98556958515238     -1.36315920230195
  H   1.88058736104960      1.23108756662591      0.23568976021579
