12
Coordinates from ORCA-job run
  C   1.02036147731655      0.28546024431741     -0.19867736394118
  C   -0.37552065273157      0.06940582900966      0.40977320952592
  H   1.56274154569425      1.05624541770349      0.35598080240717
  H   -0.25419731455141     -0.33859071782494      1.41771800502220
  H   0.91728582463100      0.63738642395256     -1.23004283124685
  C   1.79042953319236     -0.95621797140929     -0.18421245099690
  N   2.42544300742404     -1.94171064646843     -0.14942521679467
  N   -1.10757104829374     -0.90426706139421     -0.38008291250124
  H   -1.94608060751464     -1.20110323929565      0.10328152245369
  H   -1.38478008761777     -0.50389430095220     -1.26872576991818
  C   -1.04603108099945      1.38196491711440      0.53432087139400
  N   -1.60208059654963      2.41532110524718      0.59109213459605
