12
Coordinates from ORCA-job run
  C   0.90148791642185     -0.51675351455482     -0.26820459600379
  C   -0.42330278678301     -0.02803356251393      0.33883668515873
  H   0.99650788531753     -1.58118915105033     -0.04166654496346
  H   -0.36321512340619     -0.13882861746793      1.42556351006605
  H   0.87247012429439     -0.40747015831708     -1.35671236878640
  C   2.05052767683349      0.21340462292480      0.26111962597418
  N   2.96110046717270      0.80188065087774      0.70968690724441
  N   -1.49771299617857     -0.88604355753216     -0.14033685583140
  H   -1.68646152551813     -0.69277202965279     -1.11760658746756
  H   -2.34941966680140     -0.69816530147830      0.37482759016027
  C   -0.62404202341666      1.40644909728059      0.04431404099609
  N   -0.83893994793601      2.52852152148421     -0.22982140654711
