12
Coordinates from ORCA-job run
  C   0.91354466235020     -0.40133885420521      0.52630583385208
  C   -0.54636169438224      0.05799430451702      0.37723078458693
  H   1.36456805141334      0.06498139857687      1.40677497502113
  H   -1.05630274375037     -0.17389732973801      1.32561191780920
  H   0.92678728748687     -1.48435749578992      0.68675164986559
  C   1.71221772596440     -0.08416077059002     -0.65572612068766
  N   2.37777587398498      0.17492062992863     -1.58615745934335
  N   -1.13536479043604     -0.58294737669215     -0.79103427898801
  H   -1.24297262194075     -1.57555678095390     -0.61704570937979
  H   -2.05065434667296     -0.19737926197134     -0.98860799171414
  C   -0.60118864707842      1.51635757414170      0.21178674214766
  N   -0.66104875693901      2.68338396277634      0.10310965683038
