14
Coordinates from ORCA-job run
  C   0.76910306572893      0.68309316355420     -0.02925667437704
  C   -0.54847111726347     -0.01114428664839      0.26573945195520
  Cl  0.99736651880479      1.09194562790731     -1.70516118974139
  H   -0.72559231396985     -0.06826465295005      1.33735445733502
  H   0.79919917148430      1.60050595974278      0.56163971761235
  N   1.89471750063258     -0.18642967288510      0.52911981881240
  O   1.63557010461560     -0.66588900364999      1.62864949959046
  O   2.93284904065229     -0.28286967828162     -0.09548158920035
  N   -0.63973998229615     -1.40953517871317     -0.25810560293806
  O   0.26194360033693     -1.81089364317548     -0.98481539435844
  O   -1.62918349552543     -2.02628239752650      0.11673929473834
  N   -1.66262976800321      0.81514474838638     -0.32136809780843
  O   -1.81004698953869      1.89705251482849      0.23456111905068
  O   -2.27608533565861      0.37256649941117     -1.27961481067074
