14
Coordinates from ORCA-job run
  C   0.98898709864797      0.45203067615638     -0.29443080424778
  C   -0.46959629749451      0.15293086957175     -0.57505823075378
  Cl  1.97654051296796     -0.13092155223694     -1.61310399532444
  H   -0.74254086374307      0.55132783835820     -1.55167632170999
  H   1.10319565848560      1.53314558800882     -0.20715686527836
  N   1.43680400577235     -0.10145178614202      1.05591872862927
  O   2.47190285633665     -0.73360738818747      1.12873974217703
  O   0.68659831613302      0.22118574562211      1.96876753464348
  N   -1.39109799440578      0.83451996533659      0.41577897790057
  O   -1.26473941158004      2.05007574912881      0.44253114130361
  O   -2.17101465524996      0.14225689139941      1.04735413166349
  N   -0.78752633724297     -1.30668925713498     -0.60160332195303
  O   -0.12756814894632     -2.03835619025989      0.12730980523771
  O   -1.70994473968089     -1.62544714962078     -1.34337052228778
