14
Coordinates from ORCA-job run
  C   0.93906840904240      0.20527271461195     -0.28677681436634
  C   -0.36616652551010     -0.48295837850469      0.02632590075384
  Cl  2.05838921465270     -0.94702727343538     -1.00051596199315
  H   -0.26219495293905     -1.33003477945186      0.69825448040667
  H   0.80258979646708      1.04909626795534     -0.95783734028644
  N   1.53685226222058      0.74368478505535      0.98970859353947
  O   1.21934982384896      0.17721943332366      2.03069824815117
  O   2.30744521768434      1.68303877773291      0.85989264304483
  N   -0.99532847699819     -0.95930002165634     -1.25053904012050
  O   -1.16438407649484     -0.09813918641491     -2.10865125751272
  O   -1.28219705905988     -2.14791137958987     -1.31393801498109
  N   -1.35294925506446      0.47668837611275      0.63268266270029
  O   -2.36278683496463     -0.04042912428098      1.09304821163628
  O   -1.07768754288492      1.67079978854206      0.58664768902770
