14
Coordinates from ORCA-job run
  C   0.92276171840146      0.23560914655389     -0.31579636252011
  C   -0.36050947245639     -0.48840460044956      0.00677100625503
  Cl  2.01436222814718     -0.84845522752082     -1.16647031990358
  H   -0.21796633482550     -1.38534721252951      0.60251819278715
  H   0.74797228014262      1.12560708313854     -0.91436174216668
  N   1.57759534742917      0.68360865027196      0.96753171402056
  O   1.31777126724818      0.03475646223436      1.97591816242481
  O   2.33104315895864      1.64090066581877      0.87320241206230
  N   -1.05027096013345     -0.86874363422869     -1.27170716492168
  O   -1.26660504642672      0.05538056636518     -2.04981636118083
  O   -1.33412473030763     -2.05123949651600     -1.41365001128423
  N   -1.32109639850512      0.41030686269923      0.73562046199339
  O   -1.06232837397064      1.60882039074927      0.75863691656343
  O   -2.29760468370179     -0.15279965658662      1.21360309587044
