14
Coordinates from ORCA-job run
  C   0.75666878948120      0.58242943717298      0.38313438936256
  C   -0.59796890951369     -0.04532644458515      0.10884645316007
  Cl  1.40683632112072      1.48274835010721     -0.95678471012479
  H   -1.04352671517502     -0.42532253447163      1.02538142356377
  H   0.64347486199891      1.25654300192226      1.23433600271690
  N   1.69638660638762     -0.51865542037956      0.87097452317876
  O   2.85968061331655     -0.50165945449356      0.51948363939123
  O   1.16168412370155     -1.30135691519828      1.65032708507612
  N   -0.56400004911941     -1.18802130722163     -0.85642163130302
  O   0.48958912315789     -1.41576458984311     -1.43959030415487
  O   -1.62077442965462     -1.79903784316080     -0.95406310926504
  N   -1.51961866226798      1.02393935253963     -0.41660029994096
  O   -1.79648755182244      1.87901539397243      0.41618051098232
  O   -1.87194412161128      0.97046897363921     -1.58420397264303
