15
Coordinates from ORCA-job run
  C   0.52007624733298     -0.37706731808957      0.29759794811591
  C   -0.88871411094582     -0.16389880643566     -0.22441406160663
  Cl  1.66216096890751     -0.66728920852354     -1.09851558608329
  H   -1.25037999516546     -1.15760634912382     -0.51100856686823
  H   -1.48113810425113      0.15790658134353      0.63532653264871
  N   1.08082645570741      0.86669966928475      0.99712871796242
  O   0.39789749027714      1.88374895427349      1.00179907259723
  O   2.17512592268800      0.72799608962652      1.52823835830438
  N   0.56364810822432     -1.38197600517014      1.28341574708397
  H   1.50802064248510     -1.52627792667649      1.61973952690565
  H   0.17520320057595     -2.25015040091135      0.94107912265343
  C   -1.06918300708120      0.79257404836429     -1.39690296037616
  H   -2.13578019481989      0.89793747509277     -1.60682453112812
  H   -0.67221375892542      1.77988297949164     -1.16993764241233
  H   -0.58554986500951      0.41652021745360     -2.29772167779697
