15
Coordinates from ORCA-job run
  C   0.71102443279036     -0.59711312987952      0.12365085435230
  C   -0.43131602493554     -0.34203442398791     -0.85889018228302
  Cl  1.78701434514330     -1.83244374067093     -0.56800100135326
  H   -0.98598263579350     -1.28183437729136     -0.94256173248184
  H   0.00186974553606     -0.13050459316628     -1.83905710103559
  N   1.48528196033738      0.72797174485818      0.20176322841964
  O   2.09024542723201      1.07574466958755     -0.80203845975669
  O   1.34386848962988      1.38462830075908      1.22860950295490
  N   0.39318111588229     -0.97960126336474      1.45724284726196
  H   -0.07900858310623     -0.23558424596357      1.95192662918062
  H   -0.15941701438142     -1.82649270698397      1.45625502360675
  C   -1.35447579687290      0.79187424813629     -0.42749751647154
  H   -2.18671474639969      0.87434399000398     -1.12899185277292
  H   -1.77742674900920      0.61830182968168      0.56418997660479
  H   -0.83814396605281      1.75374369828151     -0.41660021622608
