19

C	0.0	0.0	0.0
C	-0.551791	0.10231	-1.416363
F	1.398728	0.0	0.0
H	-1.640971	0.214984	-1.239061
C	-0.345805	1.232563	0.752547
N	-0.482505	2.239253	1.3408
C	-0.513877	-1.202847	0.757156
H	-1.613515	-1.139504	0.718936
H	-0.161475	-1.172856	1.791565
H	-0.15501	-2.120413	0.286706
C	-0.311064	-1.179515	-2.208784
H	0.742114	-1.480387	-2.181963
H	-0.926218	-1.998779	-1.832027
H	-0.589095	-1.01982	-3.255021
C	0.008648	1.31782	-2.148374
H	1.089046	1.229352	-2.299839
H	-0.186526	2.240994	-1.597485
H	-0.467207	1.410824	-3.128926
H	-3.280632	0.0	0.0
