16

C	-0.328438	-0.188758	-1.47076
C	0.0	0.0	0.0
F	-1.556269	-0.802036	-1.675563
H	1.090468	0.0	0.0
H	-0.34044	-0.918426	0.498932
N	-0.453625	1.181741	-2.108054
O	-1.566744	1.570329	-2.447925
O	0.58745	1.817368	-2.218942
C	0.774507	-0.958424	-2.159869
H	0.703366	-1.999091	-1.83019
H	1.73026	-0.560418	-1.797394
H	0.675672	-0.920841	-3.247657
N	-0.559078	1.221657	0.566657
H	0.163246	1.660818	1.119845
H	-1.350863	1.02829	1.163962
F	2.720584	0.0	0.0
