16

C	-0.323139	-0.137509	-1.467961
C	0.0	0.0	0.0
F	-1.664754	-0.425201	-1.709176
H	1.09306	0.0	0.0
H	-0.435488	0.920147	0.400947
N	-0.147715	1.236281	-2.114213
O	0.71322	1.388226	-2.977275
O	-0.914399	2.118179	-1.727298
C	0.57286	-1.14992	-2.119842
H	0.304766	-2.117505	-1.693247
H	1.595404	-0.902789	-1.8155
H	0.455333	-1.164617	-3.20385
N	-0.42087	-1.222079	0.693067
H	0.319283	-1.462449	1.339989
H	-1.273556	-1.071421	1.214659
F	2.697144	0.0	0.0
