16

C	-0.264136	-0.040154	-1.485219
C	0.0	0.0	0.0
F	-0.071805	-1.320747	-1.944343
H	1.093564	0.0	0.0
H	-0.373147	0.953488	0.381121
N	-1.717992	0.284959	-1.80954
O	-2.421378	-0.563421	-2.345158
O	-2.093876	1.411468	-1.491475
C	0.674741	0.890625	-2.21444
H	0.416075	1.927196	-1.996144
H	1.668586	0.670869	-1.799708
H	0.628089	0.715284	-3.292766
N	-0.67938	-1.11383	0.675978
H	-0.675487	-0.910143	1.668456
H	-0.082745	-1.925949	0.559079
F	2.741037	0.0	0.0
