15

C	-0.39988	-0.006594	-1.470307
C	0.0	0.0	0.0
Cl	-2.249564	0.326236	-1.611579
H	1.09646	0.0	0.0
H	0.038989	0.852791	-1.974525
N	-0.020831	-1.193915	-2.118666
H	-0.158509	-1.140532	-3.117695
H	-0.497183	-2.003878	-1.748509
C	-0.472973	-1.228134	0.776494
H	0.033233	-2.116411	0.394062
H	-0.187677	-1.125103	1.824235
H	-1.557049	-1.354283	0.716106
C	-0.445376	1.230378	0.649436
N	-0.788893	2.214916	1.189695
Br	3.503583	0.0	0.0
