15

C	-0.464893	0.029202	-1.465914
C	0.0	0.0	0.0
Cl	0.002635	-1.513794	-2.26175
H	1.097109	0.0	0.0
H	-1.558571	0.062396	-1.513569
N	0.070858	1.125287	-2.233354
H	-0.345592	1.986536	-1.89476
H	1.074609	1.17147	-2.068107
C	-0.499312	-1.188115	0.821273
H	-0.188944	-1.071907	1.861292
H	-1.590472	-1.272	0.785931
H	-0.056109	-2.105944	0.437329
C	-0.465545	1.251619	0.597205
N	-0.89469	2.241951	1.063081
Br	3.477606	0.0	0.0
