15

C	-0.272734	-0.022515	-1.512925
C	0.0	0.0	0.0
Cl	-2.035172	-0.236312	-1.84926
H	1.098491	0.0	0.0
H	-0.013783	0.955738	-1.921981
N	0.474316	-1.017856	-2.237469
H	1.46324	-0.834132	-2.057942
H	0.268964	-1.936003	-1.860805
C	-0.473474	-1.232636	0.764675
H	-0.106146	-1.182439	1.790968
H	-0.052824	-2.134652	0.315888
H	-1.562059	-1.310499	0.77621
C	-0.50959	1.223002	0.605569
N	-0.945837	2.202641	1.086066
Br	3.473995	0.0	0.0
