15

C	-0.438834	0.044276	-1.475939
C	0.0	0.0	0.0
Cl	-0.023065	-1.520471	-2.260827
H	1.096883	0.0	0.0
H	-1.528545	0.125374	-1.54587
N	0.16261	1.111612	-2.231687
H	-0.225204	1.992572	-1.911158
H	1.163334	1.116472	-2.042567
C	-0.509788	-1.191446	0.808318
H	-0.224023	-1.074588	1.85543
H	-0.052801	-2.106266	0.434105
H	-1.599174	-1.282582	0.748112
C	-0.467734	1.251881	0.593657
N	-0.899217	2.254995	1.028938
Br	3.496157	0.0	0.0
