15

C	-0.268034	-0.038655	-1.513949
C	0.0	0.0	0.0
Cl	-2.024041	-0.289943	-1.85785
H	1.098423	0.0	0.0
H	-0.026756	0.941877	-1.929053
N	0.503063	-1.024163	-2.227093
H	1.486964	-0.821418	-2.040161
H	0.31297	-1.944338	-1.8461
C	-0.470483	-1.227524	0.774481
H	-0.096241	-1.172124	1.79804
H	-0.054129	-2.132222	0.32744
H	-1.55884	-1.304233	0.7933
C	-0.515734	1.22677	0.591929
N	-0.960983	2.208018	1.060797
Br	3.47351	0.0	0.0
