16
Coordinates from ORCA-job run
  C   -0.66399911730347     -0.23683814477102     -0.28655448299995
  C   0.65422653040481      0.29353880097553      0.31462835944254
  F   -0.35197956048121     -1.29402463568560     -1.13175366640601
  H   0.40102193262667      1.16448558627827      0.93152073333856
  C   -1.65504975062489     -0.73103996154645      0.74915306930108
  H   -1.20879737261129     -1.55159395751676      1.31260109599173
  H   -1.93043083061680      0.07289747376717      1.43462647612643
  H   -2.55334668672181     -1.09216226493433      0.24692448919819
  C   -1.26499104610247      0.83322980260303     -1.10544309005636
  N   -1.74935069183487      1.70517200439746     -1.72504114581688
  C   1.66502564865038      0.70125644603467     -0.76203877674727
  H   2.58145730620844      1.06489949864631     -0.29550105496340
  H   1.25388072690472      1.49783266392343     -1.38463893491549
  H   1.90945498934739     -0.15290478219202     -1.39296963798724
  C   1.22384980437438     -0.72768196254702      1.19705502045381
  N   1.68902811778004     -1.54706656743266      1.89743154604026
