16
Coordinates from ORCA-job run
  C   -0.69811860555841     -0.22605408784729     -0.20161432186679
  C   0.69375790224292      0.28720620060653      0.22147978970410
  F   -0.52049008914673     -1.41337363379905     -0.90040355260951
  H   0.54461065957603      1.25440931395308      0.71697410681128
  C   -1.63259133393849     -0.49330357303983      0.96220176059656
  H   -1.79692983217066      0.41704789603770      1.54213303143190
  H   -2.59093060570391     -0.85043997842332      0.58316262234946
  H   -1.19679801603526     -1.25950878049808      1.60488225149050
  C   -1.29495771800240      0.75587308772297     -1.12713758509790
  N   -1.77374928862851      1.55854294619547     -1.83775941703458
  C   1.63999527798899      0.46023379262621     -0.97102250076890
  H   1.23105342968594      1.18630653029616     -1.67584961633761
  H   1.78071615673337     -0.49152163656863     -1.48267310343478
  H   2.61103582269717      0.81973003911317     -0.62816099432867
  C   1.26696955026792     -0.63413044698299      1.20555626587647
  N   1.73742668999204     -1.37101766939208      1.98923126321847
