16
Coordinates from ORCA-job run
  C   -0.69475314391157     -0.22537753511265     -0.21145196094796
  C   0.69104144761748      0.28466619270125      0.23500550558062
  F   -0.50360083902918     -1.38841101637900     -0.94713611121654
  H   0.53164432993722      1.23135192103860      0.76582997576028
  C   -1.63236273893018     -0.53774300504382      0.93858348052298
  H   -2.58501696856604     -0.89241349335217      0.54324954618814
  H   -1.80890850782168      0.35280066590436      1.54509990072600
  H   -1.19266069341946     -1.31895720312633      1.56010294511787
  C   -1.29528760520516      0.77955616524533     -1.10891939330467
  N   -1.77559369607352      1.59279788275334     -1.80649621167864
  C   1.63940033965375      0.50994569720622     -0.94688184557126
  H   1.78739022962163     -0.42042466179227     -1.49456808169955
  H   2.60725282651838      0.86194589439452     -0.58754935967023
  H   1.22779833827295      1.26019278782680     -1.62434255438904
  C   1.26832937645119     -0.66645316141687      1.18768972641000
  N   1.73732730488420     -1.42447713084730      1.95178443817200
