16
Coordinates from ORCA-job run
  C   -0.67523375364245     -0.22261956835056     -0.27056595265032
  C   0.67105000149813      0.27633709073260      0.29393940921913
  F   -0.41580486184973     -1.31931462356726     -1.08277331900289
  H   0.46024918267072      1.17370297581199      0.88855915039832
  C   -1.66852123153345     -0.64323665671698      0.79515302921772
  H   -1.24629907131814     -1.46386086147476      1.37678010855923
  H   -1.89894556467097      0.19214325963556      1.45926762327835
  H   -2.58925609222207     -0.98228037097603      0.31880273849202
  C   -1.24859600022525      0.84145986380952     -1.11640814334271
  N   -1.72175736610022      1.71554569431703     -1.74159054836210
  C   1.67781486716572      0.61477342250973     -0.81013400776396
  H   2.61615028905269      0.95350988595599     -0.36903634944413
  H   1.28751185297290      1.41069326378399     -1.44689048215419
  H   1.87681551284373     -0.26475057421944     -1.42193496672692
  C   1.21689229514011     -0.73781774589666      1.19901690400595
  N   1.65892994021827     -1.54428505535475      1.92881480627654
