16
Coordinates from ORCA-job run
  C   -0.78557297026080      0.19245080462111     -0.38121592598893
  C   0.65800003752409      0.64192451199615     -0.06414100737512
  F   -0.87845025536986      0.12398495309963     -1.76890389682082
  H   0.78444866633696      1.61845579738047     -0.54600768808862
  C   -1.16351858919633     -1.15822454785936      0.19234587695321
  H   -0.51466135223058     -1.92849859225467     -0.22502416866758
  H   -2.19458764521055     -1.38809532937447     -0.07895176406539
  H   -1.07515957311997     -1.15482096358288      1.28002403589439
  C   -1.72893181115011      1.23172025095235      0.07004182176451
  N   -2.48434688485659      2.05419472749255      0.43354241043110
  C   1.71293951809144     -0.32647178687393     -0.60745508816428
  H   1.53122600709336     -0.51338580629190     -1.66595657295701
  H   2.70430181823668      0.11539903644420     -0.49681785490449
  H   1.70408145673262     -1.27273240589389     -0.06588536746101
  C   0.80330926688091      0.82518608694958      1.38006504124743
  N   0.92692231049875      0.93791326319505      2.54234014820260
