16
Coordinates from ORCA-job run
  C   -0.80364440510666      0.23335127753957     -0.32985798889697
  C   0.72548404843042      0.21980109824894     -0.50236304865642
  F   -1.33277693479917      0.86314493679640     -1.45001590520276
  H   0.91344945832027     -0.33311358077248     -1.43057097056836
  C   -1.40879767214455     -1.15568753843089     -0.24983783038029
  H   -2.49538872793342     -1.06590841770878     -0.28359639226598
  H   -1.07744110265440     -1.74487835179039     -1.10767132920334
  H   -1.13002450693542     -1.66315958950166      0.67356610572901
  C   -1.17173146201512      1.02793398447595      0.85589451636548
  N   -1.45346560421666      1.62123751366530      1.82931475459789
  C   1.45930063596503     -0.44625292379345      0.66494426719882
  H   1.22715956337487      0.05729027504882      1.60562674340944
  H   1.18558771251980     -1.49884478665566      0.74556112164703
  H   2.53666705574880     -0.38731348617564      0.50536768497527
  C   1.20721076357937      1.59001272074778     -0.69779388135707
  N   1.61941117786688      2.68138686830621     -0.82856784739178
