16
Coordinates from ORCA-job run
  C   -0.85127561981010      0.24400803568793     -0.16145732620005
  C   0.64848388740872      0.53247991667399     -0.34938337904128
  F   -1.54456908980106      1.24484155666648     -0.83094365276197
  H   0.81949630617281      0.51594817597325     -1.43253902622801
  C   -1.28086278121830     -1.08883170637308     -0.74575703884769
  H   -0.86639326660268     -1.92613132977330     -0.18444016510339
  H   -2.36936711825992     -1.15105794471159     -0.71113248719963
  H   -0.95777470296263     -1.14867718231332     -1.78733158246878
  C   -1.20582351163547      0.32108722132876      1.26726215167322
  N   -1.46964790112719      0.33623186112762      2.41148808608390
  C   1.55208701740764     -0.49257337819939      0.34163036741278
  H   1.34198514225085     -0.53412989803958      1.41231537397580
  H   2.59754401909793     -0.21017821203261      0.21182637005907
  H   1.41293967241935     -1.48477993942259     -0.08907187592983
  C   0.94994517069328      1.88609301992119      0.12457262538761
  N   1.22223277596677      2.95666980348622      0.52196155918816
