19

C	0.0	0.0	0.0
C	-0.264465	0.000658	-1.536889
F	1.406893	0.0	0.0
H	0.545447	0.608203	-1.943365
C	-0.463219	1.299799	0.62264
H	-0.095903	1.340711	1.653855
H	-1.559232	1.299101	0.622377
H	-0.072977	2.167334	0.081721
N	-0.508818	-1.1798	0.619336
H	-0.391229	-1.081636	1.623088
H	-1.525087	-1.167611	0.448959
C	-1.604599	0.46339	-2.064994
H	-1.669027	0.240239	-3.134472
H	-2.446865	0.033427	-1.508235
H	-1.67579	1.546463	-1.935782
N	0.050776	-1.371645	-2.059623
O	1.21299	-1.588085	-2.413155
O	-0.861088	-2.19209	-2.112089
H	-3.503544	0.0	0.0
