19

C	0.0	0.0	0.0
C	-0.514248	0.05855	-1.450735
F	1.413257	0.0	0.0
H	-1.606084	0.214851	-1.318776
C	-0.498265	1.15073	0.833054
H	-1.597093	1.087348	0.812435
H	-0.108098	1.035484	1.853974
H	-0.170278	2.105536	0.424101
N	-0.403832	-1.279644	0.534282
H	0.433171	-1.815115	0.766972
H	-1.02983	-1.172209	1.339932
C	-0.226971	-1.196566	-2.245849
H	-0.519435	-1.069104	-3.290433
H	0.830224	-1.455817	-2.21672
H	-0.818406	-1.991575	-1.799973
N	0.076642	1.240502	-2.139087
O	-0.405746	2.353262	-1.929142
O	1.060364	1.053907	-2.861655
H	-3.295889	0.0	0.0
