19

C	0.0	0.0	0.0
C	-0.206706	-0.00852	-1.559122
F	1.402217	0.0	0.0
H	0.231976	0.918283	-1.933206
C	-0.4997	1.295911	0.587828
H	-0.067999	2.150621	0.061253
H	-0.196082	1.328112	1.636631
H	-1.594632	1.302673	0.524573
N	-0.526136	-1.095002	0.731118
H	-1.54376	-0.938388	0.775058
H	-0.368892	-1.954067	0.215882
C	-1.584556	-0.238137	-2.131233
H	-1.969493	-1.21201	-1.836853
H	-1.532223	-0.168976	-3.22446
H	-2.303508	0.469388	-1.717157
N	0.70203	-1.05822	-2.133905
O	0.47345	-2.234086	-1.843515
O	1.610129	-0.697688	-2.882009
H	-3.424462	0.0	0.0
