12

C	0.0	0.0	0.0
C	-0.457621	-0.095307	-1.496215
Br	1.936874	0.0	0.0
H	0.440733	-0.065314	-2.124428
H	-0.355862	-0.825242	0.605403
H	-0.347966	0.931352	0.432292
N	-1.370417	0.934872	-1.960319
H	-2.131534	0.825846	-1.243448
H	-0.901042	1.82686	-1.830927
C	-1.042765	-1.423994	-1.728398
N	-1.392859	-2.527413	-1.922342
F	-2.593693	0.0	0.0
