12

C	0.0	0.0	0.0
C	-0.434177	-0.005985	-1.458266
Br	1.944339	0.0	0.0
H	0.078023	-0.847867	-1.95287
H	-0.339295	0.896617	0.502346
H	-0.322762	-0.888074	0.529717
N	-0.080727	1.280444	-2.08801
H	0.913495	1.277317	-2.291847
H	-0.572854	1.30572	-2.975763
C	-1.893356	-0.229289	-1.696608
N	-2.615107	-0.454748	-2.617498
F	-2.458818	0.0	0.0
