12

C	0.0	0.0	0.0
C	-0.460969	0.105682	-1.493
Br	1.939676	0.0	0.0
H	0.435093	0.203071	-2.117431
H	-0.346394	0.864274	0.555331
H	-0.353015	-0.899352	0.4905
N	-1.361244	1.199191	-1.814138
H	-2.12381	1.002605	-1.119972
H	-0.883168	2.060868	-1.566362
C	-1.067693	-1.172982	-1.896407
N	-1.415723	-2.222961	-2.288941
F	-2.585766	0.0	0.0
