14

C	0.0	0.0	0.0
C	-0.53665	0.160066	-1.425989
Br	1.938617	0.0	0.0
H	-1.591628	-0.140619	-1.358616
H	-0.284685	0.898217	0.558207
N	-0.475646	-1.248411	0.532738
H	-1.497461	-1.182483	0.517181
H	-0.186148	-1.335234	1.500027
C	0.125005	-0.737781	-2.372877
N	0.599674	-1.441493	-3.184283
N	-0.406914	1.558717	-1.857183
H	-0.466897	1.600546	-2.867842
H	-1.23038	2.034457	-1.4986
Cl	-3.532244	0.0	0.0
