14

C	0.0	0.0	0.0
C	-0.39294	-0.237144	-1.502634
Br	2.062627	0.0	0.0
H	0.517208	-0.381658	-2.090711
H	-0.246089	1.010646	0.319317
N	-0.477095	-0.940287	0.934192
H	-1.447962	-0.689079	1.132511
H	-0.489959	-1.852262	0.490214
C	-1.013153	0.983401	-2.065549
N	-1.418038	1.925969	-2.638901
N	-1.196153	-1.443505	-1.624467
H	-1.3285	-1.640594	-2.611334
H	-2.111304	-1.23621	-1.208441
Cl	-3.536091	0.0	0.0
