14

C	0.0	0.0	0.0
C	-0.375464	0.193893	-1.51131
Br	1.957839	0.0	0.0
H	0.421551	-0.255567	-2.11105
H	-0.258431	0.887291	0.576112
N	-0.558225	-1.170184	0.563419
H	-1.007883	-1.706771	-0.170942
H	-1.276759	-0.924938	1.229052
C	-0.356395	1.639179	-1.817879
N	-0.33826	2.788163	-2.062801
N	-1.593603	-0.516112	-1.830055
H	-1.833059	-0.384316	-2.80455
H	-2.394652	-0.208057	-1.260501
Cl	-4.092522	0.0	0.0
