14

C	0.0	0.0	0.0
C	-0.319451	0.589035	-1.415445
Br	1.994115	0.0	0.0
H	0.390522	0.102028	-2.091795
H	-0.265358	0.694948	0.803557
N	-0.539985	-1.321092	0.097608
H	-0.273959	-1.73509	0.984156
H	-1.559201	-1.213585	0.108257
C	0.011599	2.026512	-1.414618
N	0.291195	3.166094	-1.428438
N	-1.633778	0.391926	-1.971161
H	-1.765507	-0.598178	-2.137393
H	-2.380729	0.656522	-1.327529
Cl	-4.014513	0.0	0.0
