14

C	0.0	0.0	0.0
C	-0.362357	0.108001	-1.53431
Br	1.949309	0.0	0.0
H	0.474249	-0.300411	-2.107703
H	-0.289955	0.910881	0.52042
N	-0.545623	-1.120821	0.679445
H	-0.623431	-1.896243	0.030676
H	-1.498283	-0.878977	0.950985
C	-0.427288	1.542146	-1.90075
N	-0.451841	2.671687	-2.226548
N	-1.521994	-0.695595	-1.845806
H	-1.742604	-0.609254	-2.830271
H	-2.346433	-0.400918	-1.307681
Cl	-3.972582	0.0	0.0
