14

C	0.0	0.0	0.0
C	-0.502824	0.094783	-1.448218
Br	1.955293	0.0	0.0
H	-1.592865	-0.02397	-1.362256
H	-0.272526	0.936152	0.503174
N	-0.485075	-1.203161	0.60494
H	-0.243697	-1.214949	1.589326
H	-1.507158	-1.150752	0.534821
C	0.015437	-1.012277	-2.261607
N	0.408344	-1.88345	-2.943261
N	-0.25028	1.363686	-2.116585
H	0.702161	1.662039	-1.936935
H	-0.885634	2.050977	-1.726744
Cl	-3.519148	0.0	0.0
