13

C	-0.048089	-0.013449	-0.003235
C	-0.495475	0.343923	-1.393571
F	1.359603	-0.078766	0.029738
H	0.371189	0.573429	-2.024435
H	-0.454807	-0.93428	0.376518
H	-1.214565	1.147596	-1.37591
N	-0.361258	1.062695	0.98157
O	-0.392793	0.728834	2.160685
O	-0.392048	2.223102	0.575475
N	-1.169022	-0.804152	-2.055547
O	-1.964717	-0.531651	-2.948657
O	-0.809043	-1.941617	-1.764471
F	-2.332114	0.016623	0.112975
