16

C	0.0	0.0	0.0
C	-0.58298	0.00662	-1.410411
Br	1.955349	0.0	0.0
H	-1.669422	-0.064014	-1.20625
H	-0.277405	0.938183	0.486902
C	-0.52667	-1.159638	0.816034
H	-0.161668	-1.12013	1.845274
H	-1.623997	-1.062553	0.799077
H	-0.223269	-2.115419	0.380433
N	-0.19675	-1.098215	-2.268218
H	-0.670181	-1.9381	-1.959041
H	0.806016	-1.244635	-2.198583
N	-0.222505	1.245623	-2.102944
H	-0.60009	1.148158	-3.039852
H	-0.742817	1.997713	-1.659346
H	-3.362545	0.0	0.0
