16

C	0.0	0.0	0.0
C	-0.539392	-0.111936	-1.444507
Br	1.955	0.0	0.0
H	0.282737	0.089995	-2.142391
H	-0.238631	1.009106	0.335312
C	-0.545494	-1.012264	0.980513
H	-0.168051	-0.811938	1.986518
H	-1.638813	-0.899332	0.975942
H	-0.276614	-2.026277	0.682786
N	-1.531873	0.942404	-1.608368
H	-1.898807	0.870145	-2.554854
H	-2.339416	0.712533	-0.986415
N	-0.977114	-1.491365	-1.701883
H	-1.175734	-1.556414	-2.694833
H	-1.875673	-1.592583	-1.230647
H	-3.599652	0.0	0.0
