16

C	0.0	0.0	0.0
C	-0.398714	0.275771	-1.489007
Br	1.964361	0.0	0.0
H	0.294108	-0.326135	-2.093314
H	-0.302442	0.837742	0.631125
C	-0.526865	-1.306639	0.544611
H	-0.253544	-2.136918	-0.112917
H	-0.130573	-1.50964	1.542834
H	-1.61887	-1.218166	0.592721
N	-0.206573	1.690508	-1.841113
H	-1.116828	2.12756	-1.757485
H	0.428617	2.137714	-1.189892
N	-1.73885	-0.094209	-1.854245
H	-2.458209	0.079135	-1.108846
H	-1.783237	-1.089263	-2.037089
H	-3.641368	0.0	0.0
