15

C	-0.473582	-0.030394	-1.430757
C	0.0	0.0	0.0
F	-0.050583	-1.140607	-2.083892
H	1.103161	0.0	0.0
H	-0.339406	0.94057	0.439708
C	-1.943012	0.047834	-1.555113
N	-3.115602	0.073872	-1.619228
N	0.073262	1.189449	-2.187908
O	-0.299533	2.269643	-1.745401
O	0.798578	0.985354	-3.145067
C	-0.512643	-1.203181	0.782118
H	-0.093202	-1.171097	1.78911
H	-1.604245	-1.221111	0.861183
H	-0.175126	-2.131057	0.318208
Br	3.554535	0.0	0.0
