15

C	-0.547618	-0.129048	-1.396999
C	0.0	0.0	0.0
F	-1.914337	0.013361	-1.401584
H	1.101663	0.0	0.0
H	-0.31973	0.99129	0.34075
C	0.001279	0.837366	-2.356382
N	0.334536	1.664107	-3.120721
N	-0.267209	-1.532664	-1.942221
O	-1.154179	-2.363169	-1.791888
O	0.838987	-1.705776	-2.432891
C	-0.513803	-1.087767	0.937973
H	-0.205156	-0.839431	1.955069
H	-0.069047	-2.054367	0.694927
H	-1.601194	-1.184506	0.911587
Br	3.548297	0.0	0.0
