15

C	-0.442405	-0.208002	-1.424567
C	0.0	0.0	0.0
F	-0.000909	0.796599	-2.223249
H	1.1009	0.0	0.0
H	-0.33547	1.005664	0.274341
C	-0.057331	-1.501084	-2.006754
N	0.252719	-2.526311	-2.487627
N	-1.980162	-0.139008	-1.472103
O	-2.590223	-1.19595	-1.342002
O	-2.468628	0.979541	-1.5549
C	-0.510312	-1.058137	0.969133
H	-0.208345	-2.057242	0.648777
H	-1.596644	-1.046762	1.086424
H	-0.054075	-0.879692	1.943612
Br	3.531818	0.0	0.0
