15

C	-0.503606	0.050925	-1.414073
C	0.0	0.0	0.0
F	-1.880237	-0.015945	-1.453214
H	1.101118	0.0	0.0
H	-0.349901	-0.950905	0.412794
C	-0.100241	1.244773	-2.165644
N	0.134138	2.2418	-2.739356
N	-0.015677	-1.187721	-2.173391
O	-0.600708	-2.226329	-1.89422
O	0.912882	-1.046129	-2.956006
C	-0.503548	1.183421	0.819676
H	-0.10211	2.122125	0.430831
H	-0.14288	1.078572	1.844427
H	-1.594532	1.241189	0.835907
Br	3.536149	0.0	0.0
