15

C	-0.548637	0.150953	-1.394782
C	0.0	0.0	0.0
F	-1.917939	0.258304	-1.371176
H	1.100362	0.0	0.0
H	-0.320971	0.90256	0.531949
C	-0.027001	1.311292	-2.12749
N	0.282918	2.291732	-2.694639
N	-0.238102	-1.098977	-2.222471
O	-1.088822	-1.980209	-2.214428
O	0.850275	-1.121748	-2.778273
C	-0.510219	-1.253499	0.703719
H	-0.200768	-1.209839	1.749662
H	-1.597342	-1.345729	0.659822
H	-0.064061	-2.151903	0.274101
Br	3.550366	0.0	0.0
