15
Coordinates from ORCA-job run
  C   -0.76585222842786      0.04717246137760     -0.11145721289462
  C   0.59622376566298      0.36191007528771      0.51201999246426
  Br  -1.86015060260799     -0.96782600948125      1.13369554047721
  H   1.08261054050655      1.06716260344557     -0.17458681953746
  H   0.43152646126293      0.88480754193160      1.45772314303683
  N   -1.41572130679036      1.42597635618528     -0.32577455704751
  O   -1.28461705354040      1.89087179939090     -1.45407593553978
  O   -1.89640131718001      1.99645703402137      0.64211297802849
  N   -0.79515271057884     -0.62600687480257     -1.36778135568049
  H   -0.49229806813185     -1.58462010223085     -1.26833751798004
  H   -0.22974080115219     -0.13720394326292     -2.05067824750446
  C   1.48082208176354     -0.86021733871529      0.71155689925449
  H   1.02118428879326     -1.57688406244153      1.39328581193554
  H   2.43914524375844     -0.55726091663940      1.13787956762959
  H   1.68842170666179     -1.36233862406623     -0.23558228664204
