15
Coordinates from ORCA-job run
  C   -0.63167802078097      0.12503018757173     -0.16901581768742
  C   0.66267999261208      0.37638211202469      0.57639249610063
  Br  -1.89413488614488     -0.88770404980028      1.05983163421666
  H   1.20120685954138      1.13592368643709      0.00045880262820
  H   0.42546738976538      0.80908206769809      1.54709598704091
  N   -1.39316747317958      1.43266152924588     -0.39624031016721
  O   -2.21071260093920      1.43547300738021     -1.30862777120261
  O   -1.14387096840795      2.36442146652675      0.35678588448824
  N   -0.45556310760278     -0.46556950251238     -1.42037962822276
  H   -0.01237727306956     -1.37076002621204     -1.35312343623287
  H   -1.32327735910583     -0.52413444644628     -1.93791860220921
  C   1.52046121192791     -0.87482346827753      0.72653140140747
  H   0.96704549896614     -1.68309773699932      1.20784224390940
  H   1.89711847366016     -1.22364001110429     -0.23757722957813
  H   2.38980226275771     -0.65024481553231      1.34694434550870
