15
Coordinates from ORCA-job run
  C   -0.79180375488152     -0.14343320033035     -0.05106550211781
  C   0.57303516152308     -0.70958237100510      0.31589438260967
  Br  -1.83872538101903      0.29761452179251      1.51846794149938
  H   1.02079241232874     -1.06287224300300     -0.62036703691077
  H   0.37910471510650     -1.58668664236689      0.93729479810338
  N   -0.49160261397727      1.18583620504586     -0.82102976827206
  O   -0.54727146454604      2.26664491039912     -0.25552251252464
  O   -0.12607366328943      0.99201353737110     -1.97977496933828
  N   -1.52679037476837     -1.05642836095245     -0.84206655581872
  H   -2.45226969168765     -0.70930152964651     -1.06134737816012
  H   -1.02294308162094     -1.25446900831726     -1.69824794010823
  C   1.51833957549716      0.26453903913486      1.00640409682702
  H   1.82144700238863      1.07427913776858      0.34028760369839
  H   2.42231405571209     -0.26284969267186      1.31693954034548
  H   1.06044710323406      0.70469569678140      1.89313330016733
