15
Coordinates from ORCA-job run
  C   -0.71930502472228     -0.09921145482934     -0.18108050626162
  C   0.68727568645209     -0.64331664535106      0.00814247199155
  Br  -1.75242796283518     -0.35585387178595      1.50035133530815
  H   1.16897975953604     -0.57652179284318     -0.97015747563761
  H   0.58146811238787     -1.70264953937358      0.26245035474154
  N   -0.63931466357196      1.42114818514870     -0.45380456321383
  O   0.21587030571471      1.72675435003221     -1.27660681313647
  O   -1.42029124557576      2.18359556408087      0.09615092673317
  N   -1.34707674716251     -0.65651909473222     -1.31226714404774
  H   -2.33563156776248     -0.44101802450575     -1.35365625876715
  H   -1.21276541339202     -1.65818518680180     -1.34897032107922
  C   1.52482737815355      0.06924990750866      1.06109061878206
  H   1.05938153506803      0.02308177341003      2.04586312361616
  H   1.68439867598335      1.11526030057926      0.79492580490228
  H   2.50561117172657     -0.40581447053687      1.12756844606872
