15
Coordinates from ORCA-job run
  C   -0.64734804215458     -0.04227254367685     -0.28088536992146
  C   0.65346732071369     -0.61455107186658      0.25392256573914
  Br  -1.78802830462825      0.60860667191529      1.24928999541822
  H   0.40184781485220     -1.60740986405942      0.64296961003624
  H   1.28454262075600     -0.76905591152531     -0.62602298155444
  N   -0.43729008741019      1.21184895856710     -1.13342425924429
  O   -1.42031064199786      1.61747551148946     -1.74000991588987
  O   0.68737431798085      1.69563364763797     -1.17377519841755
  N   -1.30682297126463     -0.94680926137917     -1.12662778446141
  H   -1.48760801939830     -1.82747943997961     -0.66485696037854
  H   -2.16210558906528     -0.55626171808672     -1.50237651946796
  C   1.40424073050462      0.16861688528110      1.32398661327115
  H   1.60069564103380      1.19055115483357      1.00709088699552
  H   2.36443580821112     -0.31902617041441      1.50759350744466
  H   0.85290940186681      0.19013315126357      2.26312581043058
