16

C	-0.38109	0.018128	-1.474574
C	0.0	0.0	0.0
Br	-2.337618	0.392204	-1.673304
H	1.097217	0.0	0.0
H	-0.31984	0.957667	0.424929
C	0.390616	1.09777	-2.223078
H	1.458355	0.896786	-2.084055
H	0.135166	1.108521	-3.284123
H	0.159926	2.07186	-1.786659
C	-0.186747	-1.28806	-2.104819
N	-0.027804	-2.339017	-2.608819
C	-0.541864	-1.166525	0.808207
H	-0.177406	-1.091584	1.835367
H	-0.184036	-2.116712	0.405163
H	-1.635413	-1.18236	0.826925
Cl	3.470928	0.0	0.0
