17
Coordinates from ORCA-job run
  C   -0.28096023881968      0.24541340830853     -0.41677194918869
  C   0.64789144171097     -0.66566784205219      0.39862019561259
  H   0.23650191302201      0.45544741716094     -1.35936069319423
  H   0.19650339308543     -0.92394569758353      1.36004998063569
  C   -0.52653034688033      1.55435455489247      0.32823867580117
  H   -1.23395129719824      2.16939902827668     -0.23211077572256
  H   -0.95071541100574      1.36858019833196      1.31949083759031
  H   0.38870606909356      2.13652163208742      0.45287378973199
  C   -1.58502532645623     -0.49362553139097     -0.70502110526045
  H   -2.10709260733031     -0.73770594264024      0.22514745554325
  H   -1.41670494382093     -1.41900594701540     -1.26002932967305
  H   -2.24587113718240      0.13862986657363     -1.30186304383130
  N   1.90409573320168      0.09826566803689      0.73647437304806
  O   2.64293338644757      0.37763137177113     -0.20082548833887
  O   2.04808296279792      0.42728738440583      1.90975378645664
  C   1.01455683570576     -1.87626547725321     -0.32990468636415
  N   1.26757957362896     -2.85531409190994     -0.92676202284640
