17
Coordinates from ORCA-job run
  C   -0.40083182954224      0.05778457455695     -0.58263700464835
  C   0.74633511982697     -0.84549138511215     -0.08677523690022
  H   -0.46237453265256     -0.15966818324131     -1.65677541475260
  H   0.49968858963396     -1.89508300865613     -0.26283536225183
  C   -0.10177791024626      1.54371162799302     -0.40781675180035
  H   -0.90058356986670      2.12786466260735     -0.87062863851181
  H   0.84139494543619      1.82862196371892     -0.87834672064406
  H   -0.05118506917209      1.81812124680378      0.64750643494898
  C   -1.72285925070190     -0.33807931342937      0.07051435900762
  H   -2.54308945574573      0.19742590918475     -0.41274715911986
  H   -1.91682090753067     -1.40966559291840     -0.01677181100565
  H   -1.73617008982684     -0.08003292474051      1.13176215574432
  N   0.88732825138766     -0.72300001957073      1.41032641261389
  O   1.55249138432295      0.21309383815859      1.84209711639757
  O   0.27048965115824     -1.55005338695230      2.07599651033455
  C   2.02039153600555     -0.52020517905361     -0.71957644834965
  N   3.01857313751348     -0.26634482934885     -1.28329244106253
