17
Coordinates from ORCA-job run
  C   -0.26413399148564      0.49121192556387      0.04156936826089
  C   0.80967640193856     -0.60467276293505     -0.01703221195285
  H   0.06979778623923      1.21562471080737      0.79264229258226
  H   0.54676119584880     -1.37031995666794     -0.75159576039400
  C   -1.60295351428234     -0.10216861517583      0.47085130779497
  H   -1.56929232154600     -0.50666735169674      1.48448847210876
  H   -2.37231289563685      0.67274890615456      0.45117992984097
  H   -1.91250582621318     -0.90370853488659     -0.20648029453448
  C   -0.36037181057747      1.17560493557240     -1.31931897938912
  H   0.58964444935896      1.62115560315541     -1.62168977557438
  H   -0.67057149713847      0.46442772477164     -2.09073787227373
  H   -1.10601675619588      1.97262439292928     -1.28194628347380
  N   0.84952050841421     -1.31851894197861      1.31137794481917
  O   0.41669069300406     -2.46646641599514      1.33142361824723
  O   1.25472808742390     -0.66950059606768      2.26905987464153
  C   2.13597359869201     -0.06531583897436     -0.30136494929176
  N   3.18536589215610      0.39294081542341     -0.56142668141168
