17
Coordinates from ORCA-job run
  C   -0.62021394018189      0.13063125777647      0.18333184028670
  C   0.55349998818884     -0.83714311981645      0.40928311401221
  H   -1.15462807201565      0.16330609722945      1.13927885813467
  H   0.18142810455294     -1.80176142533679      0.76550907854221
  C   -1.54444939603739     -0.43786491312741     -0.89004593046857
  H   -2.43346909022763      0.18962383867600     -0.98446403417117
  H   -1.87440450059127     -1.45097774870951     -0.64430039813936
  H   -1.04752040725990     -0.46442269702179     -1.86318943144424
  C   -0.12881143416736      1.52988589941950     -0.17162165845878
  H   -0.98436279327324      2.18890361729940     -0.33560524842073
  H   0.47857027670440      1.96864979911967      0.62272122073901
  H   0.46681076904709      1.51576170303045     -1.08847712248636
  N   1.40852964057035     -0.30315854217566      1.53473742190368
  O   2.48828357447394      0.20670442171587      1.25856659923805
  O   0.89966112616649     -0.38324347488549      2.64805731858656
  C   1.36145195447381     -1.02516942138756     -0.79063087523695
  N   1.94862419957646     -1.18972529180611     -1.79415075261693
